data/public_benchmarks/arpae_go/extracted/Challenge_1_Original_Dataset_2_Scenarios/Original_Dataset_Real-Time_Edition_2/Network_01R-020/scenario_20/case.raw
 0,    100, 33, 0, 0, 60.0 / Header line 1
Header line 2
Header line 3
     1,'',   138, 1, 1, 1, 1, 1.0050785, -102.1948, 1.1, 0.9, 1.1, 0.9
     2,'',   138, 1, 1, 1, 1, 1.0046131, -102.25287, 1.1, 0.9, 1.1, 0.9
     3,'',   138, 1, 1, 1, 1, 1, -103.64535, 1.1, 0.9, 1.1, 0.9
     4,'',   138, 1, 1, 1, 1, 0.99826543, -103.84785, 1.1, 0.9, 1.1, 0.9
     5,'',   138, 1, 1, 1, 1, 1.0061749, -81.117473, 1.1, 0.9, 1.1, 0.9
     6,'',   138, 1, 1, 1, 1, 1.0061443, -81.121414, 1.1, 0.9, 1.1, 0.9
     7,'',   345, 1, 1, 1, 1, 1.034188, -96.775894, 1.1, 0.9, 1.1, 0.9
     8,'',   138, 1, 1, 1, 1, 1.0258986, -98.316634, 1.1, 0.9, 1.1, 0.9
     9,'',  13.8, 2, 1, 1, 1, 1.04, -94.722569, 1.1, 0.9, 1.1, 0.9
    10,'',   138, 1, 1, 1, 1, 1.026828, -102.59332, 1.1, 0.9, 1.1, 0.9
    11,'',   138, 1, 1, 1, 1, 1.0268057, -102.59582, 1.1, 0.9, 1.1, 0.9
    12,'',   138, 1, 1, 1, 1, 1.0110441, -100.12942, 1.1, 0.9, 1.1, 0.9
    13,'',   138, 1, 1, 1, 1, 1.0106868, -100.17058, 1.1, 0.9, 1.1, 0.9
    14,'',   345, 1, 1, 1, 1, 1.0364508, -91.442472, 1.1, 0.9, 1.1, 0.9
    15,'',   138, 1, 1, 1, 1, 1.0304221, -93.578453, 1.1, 0.9, 1.1, 0.9
    16,'',  13.8, 2, 1, 1, 1, 1.04, -88.606779, 1.1, 0.9, 1.1, 0.9
    17,'',  13.8, 3, 1, 1, 1, 1.04, -88.048139, 1.1, 0.9, 1.1, 0.9
    18,'',  13.8, 2, 1, 1, 1, 1.04, -87.160148, 1.1, 0.9, 1.1, 0.9
    19,'',   138, 1, 1, 1, 1, 1.0241617, -101.93241, 1.1, 0.9, 1.1, 0.9
    20,'',   138, 1, 1, 1, 1, 1.0241188, -101.93811, 1.1, 0.9, 1.1, 0.9
    21,'',   138, 1, 1, 1, 1, 1.0166173, -100.4784, 1.1, 0.9, 1.1, 0.9
    22,'',   138, 1, 1, 1, 1, 1.014936, -100.67712, 1.1, 0.9, 1.1, 0.9
    23,'',   345, 1, 1, 1, 1, 1.0343136, -96.588818, 1.1, 0.9, 1.1, 0.9
    24,'',   138, 1, 1, 1, 1, 1.0257172, -98.333188, 1.1, 0.9, 1.1, 0.9
    25,'',   138, 1, 1, 1, 1, 1.0256974, -98.335625, 1.1, 0.9, 1.1, 0.9
    26,'',   138, 1, 1, 1, 1, 1.0255311, -98.357075, 1.1, 0.9, 1.1, 0.9
    27,'',   138, 1, 1, 1, 1, 1, -101.0339, 1.1, 0.9, 1.1, 0.9
    28,'',   138, 1, 1, 1, 1, 0.99937816, -101.11103, 1.1, 0.9, 1.1, 0.9
    29,'',   138, 1, 1, 1, 1, 1.0095743, -102.64965, 1.1, 0.9, 1.1, 0.9
    30,'',   138, 1, 1, 1, 1, 1.0083884, -102.7903, 1.1, 0.9, 1.1, 0.9
    31,'',   138, 1, 1, 1, 1, 1.0208663, -103.37174, 1.1, 0.9, 1.1, 0.9
    32,'',   138, 1, 1, 1, 1, 1.0207758, -103.38249, 1.1, 0.9, 1.1, 0.9
    33,'',   138, 1, 1, 1, 1, 1.0179219, -102.75001, 1.1, 0.9, 1.1, 0.9
    34,'',   138, 1, 1, 1, 1, 1.0176955, -102.77648, 1.1, 0.9, 1.1, 0.9
    35,'',   138, 1, 1, 1, 1, 1.0235886, -102.67409, 1.1, 0.9, 1.1, 0.9
    36,'',   138, 1, 1, 1, 1, 1.0232264, -102.71595, 1.1, 0.9, 1.1, 0.9
    37,'',   138, 1, 1, 1, 1, 1.012012, -86.934885, 1.1, 0.9, 1.1, 0.9
    38,'',   138, 1, 1, 1, 1, 1.0120107, -86.935054, 1.1, 0.9, 1.1, 0.9
    39,'',   345, 1, 1, 1, 1, 1.035148, -96.754398, 1.1, 0.9, 1.1, 0.9
    40,'',   138, 1, 1, 1, 1, 1.0317265, -97.430726, 1.1, 0.9, 1.1, 0.9
    41,'',   138, 1, 1, 1, 1, 1.0311923, -97.497039, 1.1, 0.9, 1.1, 0.9
    42,'',   138, 1, 1, 1, 1, 1.0300152, -101.33278, 1.1, 0.9, 1.1, 0.9
    43,'',   138, 1, 1, 1, 1, 1.0299786, -101.33718, 1.1, 0.9, 1.1, 0.9
    44,'',   138, 1, 1, 1, 1, 1.0154399, -100.13793, 1.1, 0.9, 1.1, 0.9
    45,'',   138, 1, 1, 1, 1, 1.0154132, -100.14126, 1.1, 0.9, 1.1, 0.9
    46,'',   138, 1, 1, 1, 1, 1.0202778, -99.784866, 1.1, 0.9, 1.1, 0.9
    47,'',   138, 1, 1, 1, 1, 1.0199108, -99.82939, 1.1, 0.9, 1.1, 0.9
    48,'',   138, 1, 1, 1, 1, 1.0043338, -102.14058, 1.1, 0.9, 1.1, 0.9
    49,'',  13.8, 2, 1, 1, 1, 1.0061771, -101.93986, 1.1, 0.9, 1.1, 0.9
    50,'',  13.8, 2, 1, 1, 1, 1.0064796, -101.90445, 1.1, 0.9, 1.1, 0.9
    51,'',   138, 1, 1, 1, 1, 1.0043303, -102.14102, 1.1, 0.9, 1.1, 0.9
    52,'',   138, 1, 1, 1, 1, 1.0041175, -102.16651, 1.1, 0.9, 1.1, 0.9
    53,'',   138, 1, 1, 1, 1, 1.0159833, -101.65902, 1.1, 0.9, 1.1, 0.9
    54,'',   138, 1, 1, 1, 1, 1.0155738, -101.70342, 1.1, 0.9, 1.1, 0.9
    55,'',   138, 1, 1, 1, 1, 1.029295, -100.47689, 1.1, 0.9, 1.1, 0.9
    56,'',   138, 1, 1, 1, 1, 1.0292745, -100.47924, 1.1, 0.9, 1.1, 0.9
    57,'',   345, 1, 1, 1, 1, 1.0258373, -97.068731, 1.1, 0.9, 1.1, 0.9
    58,'',   138, 1, 1, 1, 1, 1.0173402, -98.851688, 1.1, 0.9, 1.1, 0.9
    59,'',   138, 1, 1, 1, 1, 1.0158138, -99.043236, 1.1, 0.9, 1.1, 0.9
    60,'',   138, 1, 1, 1, 1, 1.0299504, -97.742412, 1.1, 0.9, 1.1, 0.9
    61,'',   138, 1, 1, 1, 1, 1.0299487, -97.742621, 1.1, 0.9, 1.1, 0.9
    62,'',   138, 1, 1, 1, 1, 1.0053606, -102.32534, 1.1, 0.9, 1.1, 0.9
    63,'',  13.8, 2, 1, 1, 1, 1.0079763, -102.23741, 1.1, 0.9, 1.1, 0.9
    64,'',   138, 1, 1, 1, 1, 1.0049367, -102.37406, 1.1, 0.9, 1.1, 0.9
    65,'',   345, 1, 1, 1, 1, 1.0347728, -98.870477, 1.1, 0.9, 1.1, 0.9
    66,'',   138, 1, 1, 1, 1, 1.0311584, -99.896169, 1.1, 0.9, 1.1, 0.9
    67,'',   138, 1, 1, 1, 1, 1.0311161, -99.90098, 1.1, 0.9, 1.1, 0.9
    68,'',   138, 1, 1, 1, 1, 1.0090442, -99.196559, 1.1, 0.9, 1.1, 0.9
    69,'',   138, 1, 1, 1, 1, 1.0088792, -99.217183, 1.1, 0.9, 1.1, 0.9
    70,'',   138, 1, 1, 1, 1, 1.01298, -100.68344, 1.1, 0.9, 1.1, 0.9
    71,'',  13.8, 2, 1, 1, 1, 1.0136641, -100.66847, 1.1, 0.9, 1.1, 0.9
    72,'',  13.8, 2, 1, 1, 1, 1.0140857, -100.65908, 1.1, 0.9, 1.1, 0.9
    73,'',  13.8, 2, 1, 1, 1, 1.0144556, -100.65345, 1.1, 0.9, 1.1, 0.9
    74,'',   138, 1, 1, 1, 1, 1.0220005, -103.37815, 1.1, 0.9, 1.1, 0.9
    75,'',   138, 1, 1, 1, 1, 1.0219395, -103.38554, 1.1, 0.9, 1.1, 0.9
    76,'',   138, 1, 1, 1, 1, 1.0105079, -85.353984, 1.1, 0.9, 1.1, 0.9
    77,'',   138, 1, 1, 1, 1, 1.010439, -85.361723, 1.1, 0.9, 1.1, 0.9
    78,'',   138, 1, 1, 1, 1, 1.0235924, -95.387267, 1.1, 0.9, 1.1, 0.9
    79,'',   138, 1, 1, 1, 1, 1.0235887, -95.387696, 1.1, 0.9, 1.1, 0.9
    80,'',   345, 1, 1, 1, 1, 1.0374589, -99.438302, 1.1, 0.9, 1.1, 0.9
    81,'',   138, 1, 1, 1, 1, 1.032265, -100.83249, 1.1, 0.9, 1.1, 0.9
    82,'',  13.8, 2, 1, 1, 1, 1.04, -98.490604, 1.1, 0.9, 1.1, 0.9
    83,'',   138, 1, 1, 1, 1, 1.0181722, -103.28604, 1.1, 0.9, 1.1, 0.9
    84,'',   138, 1, 1, 1, 1, 1.0175739, -103.35872, 1.1, 0.9, 1.1, 0.9
    85,'',   138, 1, 1, 1, 1, 1.0234415, -102.73099, 1.1, 0.9, 1.1, 0.9
    86,'',   138, 1, 1, 1, 1, 1.0232628, -102.75302, 1.1, 0.9, 1.1, 0.9
    87,'',   138, 1, 1, 1, 1, 1.0052321, -80.299165, 1.1, 0.9, 1.1, 0.9
    88,'',   138, 1, 1, 1, 1, 1.0051799, -80.305595, 1.1, 0.9, 1.1, 0.9
    89,'',   138, 1, 1, 1, 1, 1.0181723, -100.1791, 1.1, 0.9, 1.1, 0.9
    90,'',   138, 1, 1, 1, 1, 1.018099, -100.18877, 1.1, 0.9, 1.1, 0.9
    91,'',   138, 1, 1, 1, 1, 1.0236328, -94.830824, 1.1, 0.9, 1.1, 0.9
    92,'',   138, 1, 1, 1, 1, 1.0229861, -94.912327, 1.1, 0.9, 1.1, 0.9
    93,'',   138, 1, 1, 1, 1, 1.0146415, -93.453707, 1.1, 0.9, 1.1, 0.9
    94,'',   138, 1, 1, 1, 1, 1.0145836, -93.460972, 1.1, 0.9, 1.1, 0.9
    95,'',   138, 1, 1, 1, 1, 1.0251609, -94.863044, 1.1, 0.9, 1.1, 0.9
    96,'',   138, 1, 1, 1, 1, 1.0248469, -94.901086, 1.1, 0.9, 1.1, 0.9
    97,'',   138, 1, 1, 1, 1, 0.99917983, -102.06839, 1.1, 0.9, 1.1, 0.9
    98,'',   138, 1, 1, 1, 1, 0.99877876, -102.12237, 1.1, 0.9, 1.1, 0.9
    99,'',   138, 1, 1, 1, 1, 1.0303461, -97.383494, 1.1, 0.9, 1.1, 0.9
   100,'',   138, 1, 1, 1, 1, 1.0302266, -97.397728, 1.1, 0.9, 1.1, 0.9
   101,'',   138, 1, 1, 1, 1, 1.0303384, -97.384339, 1.1, 0.9, 1.1, 0.9
   102,'',   138, 1, 1, 1, 1, 1.013057, -101.97239, 1.1, 0.9, 1.1, 0.9
   103,'',   138, 1, 1, 1, 1, 1.012669, -102.02176, 1.1, 0.9, 1.1, 0.9
   104,'',   138, 1, 1, 1, 1, 1.0183068, -103.62922, 1.1, 0.9, 1.1, 0.9
   105,'',   138, 1, 1, 1, 1, 1.0174943, -103.72666, 1.1, 0.9, 1.1, 0.9
   106,'',   138, 1, 1, 1, 1, 1.0258416, -102.03196, 1.1, 0.9, 1.1, 0.9
   107,'',   138, 1, 1, 1, 1, 1.0257046, -102.0483, 1.1, 0.9, 1.1, 0.9
   108,'',   138, 1, 1, 1, 1, 1.0269719, -98.011346, 1.1, 0.9, 1.1, 0.9
   109,'',   138, 1, 1, 1, 1, 1.0265888, -98.052797, 1.1, 0.9, 1.1, 0.9
   110,'',   138, 1, 1, 1, 1, 1.0063516, -82.692679, 1.1, 0.9, 1.1, 0.9
   111,'',   138, 1, 1, 1, 1, 1.00582, -82.763825, 1.1, 0.9, 1.1, 0.9
   112,'',   138, 1, 1, 1, 1, 1.0203786, -101.46943, 1.1, 0.9, 1.1, 0.9
   113,'',   138, 1, 1, 1, 1, 1.0199695, -101.51525, 1.1, 0.9, 1.1, 0.9
   114,'',   138, 1, 1, 1, 1, 1.0230286, -102.92386, 1.1, 0.9, 1.1, 0.9
   115,'',   138, 1, 1, 1, 1, 1.0229859, -102.92935, 1.1, 0.9, 1.1, 0.9
   116,'',   138, 1, 1, 1, 1, 1.0230022, -102.92727, 1.1, 0.9, 1.1, 0.9
   117,'',   138, 1, 1, 1, 1, 1.0181707, -100.2533, 1.1, 0.9, 1.1, 0.9
   118,'',   138, 1, 1, 1, 1, 1.0180822, -100.26434, 1.1, 0.9, 1.1, 0.9
   119,'',   138, 1, 1, 1, 1, 1.0079923, -100.72501, 1.1, 0.9, 1.1, 0.9
   120,'',   138, 1, 1, 1, 1, 1.0077053, -100.7596, 1.1, 0.9, 1.1, 0.9
   121,'',   138, 1, 1, 1, 1, 1.011046, -102.35931, 1.1, 0.9, 1.1, 0.9
   122,'',   138, 1, 1, 1, 1, 1.010379, -102.4476, 1.1, 0.9, 1.1, 0.9
   123,'',   345, 1, 1, 1, 1, 1.0372239, -94.212678, 1.1, 0.9, 1.1, 0.9
   124,'',   138, 1, 1, 1, 1, 1.0354926, -94.394804, 1.1, 0.9, 1.1, 0.9
   125,'',  13.8, 2, 1, 1, 1, 1.04, -93.6587, 1.1, 0.9, 1.1, 0.9
   126,'',  13.8, 2, 1, 1, 1, 1.04, -93.914768, 1.1, 0.9, 1.1, 0.9
   127,'',  13.8, 2, 1, 1, 1, 1.04, -93.559428, 1.1, 0.9, 1.1, 0.9
   128,'',  13.8, 2, 1, 1, 1, 1.04, -93.997745, 1.1, 0.9, 1.1, 0.9
   129,'',   138, 1, 1, 1, 1, 1.0048138, -101.04135, 1.1, 0.9, 1.1, 0.9
   130,'',   138, 1, 1, 1, 1, 1.0037457, -101.15982, 1.1, 0.9, 1.1, 0.9
   131,'',   138, 1, 1, 1, 1, 1.0302172, -97.673913, 1.1, 0.9, 1.1, 0.9
   132,'',   138, 1, 1, 1, 1, 1.0299905, -97.700356, 1.1, 0.9, 1.1, 0.9
   133,'',   138, 1, 1, 1, 1, 1.0235832, -95.044029, 1.1, 0.9, 1.1, 0.9
   134,'',   138, 1, 1, 1, 1, 1.0232145, -95.089457, 1.1, 0.9, 1.1, 0.9
   135,'',   138, 1, 1, 1, 1, 1.0133102, -100.52108, 1.1, 0.9, 1.1, 0.9
   136,'',   138, 1, 1, 1, 1, 1.0129887, -100.56294, 1.1, 0.9, 1.1, 0.9
   137,'',   138, 1, 1, 1, 1, 1.0194017, -100.70729, 1.1, 0.9, 1.1, 0.9
   138,'',   138, 1, 1, 1, 1, 1.0186573, -100.80436, 1.1, 0.9, 1.1, 0.9
   139,'',   138, 1, 1, 1, 1, 1.0279369, -98.036068, 1.1, 0.9, 1.1, 0.9
   140,'',   138, 1, 1, 1, 1, 1.0279349, -98.036304, 1.1, 0.9, 1.1, 0.9
   141,'',   138, 1, 1, 1, 1, 1.0018709, -83.869265, 1.1, 0.9, 1.1, 0.9
   142,'',   138, 1, 1, 1, 1, 1.0002301, -84.058531, 1.1, 0.9, 1.1, 0.9
   143,'',   138, 1, 1, 1, 1, 1.0226301, -74.654047, 1.1, 0.9, 1.1, 0.9
   144,'',  13.8, 2, 1, 1, 1, 1.04, -69.325022, 1.1, 0.9, 1.1, 0.9
   145,'',  13.8, 2, 1, 1, 1, 1.04, -69.212831, 1.1, 0.9, 1.1, 0.9
   146,'',   345, 1, 1, 1, 1, 1.0309652, -97.0775, 1.1, 0.9, 1.1, 0.9
   147,'',   138, 1, 1, 1, 1, 1.0185946, -96.747515, 1.1, 0.9, 1.1, 0.9
   148,'',   138, 1, 1, 1, 1, 1.0178543, -96.843108, 1.1, 0.9, 1.1, 0.9
   149,'',   138, 1, 1, 1, 1, 1.0294105, -101.26982, 1.1, 0.9, 1.1, 0.9
   150,'',   138, 1, 1, 1, 1, 1.0293955, -101.27158, 1.1, 0.9, 1.1, 0.9
   151,'',   345, 1, 1, 1, 1, 1.0347573, -96.713793, 1.1, 0.9, 1.1, 0.9
   152,'',   138, 1, 1, 1, 1, 1.0330009, -98.111792, 1.1, 0.9, 1.1, 0.9
   153,'',   138, 1, 1, 1, 1, 1.032306, -98.1959, 1.1, 0.9, 1.1, 0.9
   154,'',   138, 1, 1, 1, 1, 1.0248085, -98.559778, 1.1, 0.9, 1.1, 0.9
   155,'',   138, 1, 1, 1, 1, 1.0243156, -98.618857, 1.1, 0.9, 1.1, 0.9
   156,'',   138, 1, 1, 1, 1, 1.0115437, -100.76355, 1.1, 0.9, 1.1, 0.9
   157,'',   138, 1, 1, 1, 1, 1.010463, -100.89809, 1.1, 0.9, 1.1, 0.9
   158,'',   138, 1, 1, 1, 1, 1.01342, -101.88767, 1.1, 0.9, 1.1, 0.9
   159,'',   138, 1, 1, 1, 1, 1.0131259, -101.92544, 1.1, 0.9, 1.1, 0.9
   160,'',   138, 1, 1, 1, 1, 1.0262641, -102.15514, 1.1, 0.9, 1.1, 0.9
   161,'',   138, 1, 1, 1, 1, 1.0260299, -102.1848, 1.1, 0.9, 1.1, 0.9
   162,'',   345, 1, 1, 1, 1, 1.031179, -97.139359, 1.1, 0.9, 1.1, 0.9
   163,'',   138, 1, 1, 1, 1, 1.0271134, -98.003196, 1.1, 0.9, 1.1, 0.9
   164,'',   138, 1, 1, 1, 1, 1.0258018, -98.165565, 1.1, 0.9, 1.1, 0.9
   165,'',   345, 1, 1, 1, 1, 1.0369734, -93.975289, 1.1, 0.9, 1.1, 0.9
   166,'',   138, 1, 1, 1, 1, 1.0337432, -94.845732, 1.1, 0.9, 1.1, 0.9
   167,'',  13.8, 2, 1, 1, 1, 1.04, -93.6268, 1.1, 0.9, 1.1, 0.9
   168,'',  13.8, 2, 1, 1, 1, 1.04, -93.397574, 1.1, 0.9, 1.1, 0.9
   169,'',  13.8, 2, 1, 1, 1, 1.04, -93.142744, 1.1, 0.9, 1.1, 0.9
   170,'',   138, 1, 1, 1, 1, 1.0246365, -94.987337, 1.1, 0.9, 1.1, 0.9
   171,'',   138, 1, 1, 1, 1, 1.0245152, -95.003581, 1.1, 0.9, 1.1, 0.9
   172,'',   138, 1, 1, 1, 1, 1.017857, -99.266634, 1.1, 0.9, 1.1, 0.9
   173,'',   138, 1, 1, 1, 1, 1.0178285, -99.269778, 1.1, 0.9, 1.1, 0.9
   174,'',   138, 1, 1, 1, 1, 1.0177955, -99.273786, 1.1, 0.9, 1.1, 0.9
   175,'',   345, 1, 1, 1, 1, 1.0334639, -93.227048, 1.1, 0.9, 1.1, 0.9
   176,'',   138, 1, 1, 1, 1, 1.0173293, -90.170694, 1.1, 0.9, 1.1, 0.9
   177,'',   138, 1, 1, 1, 1, 1.0172454, -90.181491, 1.1, 0.9, 1.1, 0.9
   178,'',   138, 1, 1, 1, 1, 1.0172644, -90.17781, 1.1, 0.9, 1.1, 0.9
   179,'',   138, 1, 1, 1, 1, 1.0070727, -102.92287, 1.1, 0.9, 1.1, 0.9
   180,'',   138, 1, 1, 1, 1, 1.0068963, -102.94273, 1.1, 0.9, 1.1, 0.9
   181,'',   138, 1, 1, 1, 1, 1, -101.81944, 1.1, 0.9, 1.1, 0.9
   182,'',   138, 1, 1, 1, 1, 0.99911152, -101.93054, 1.1, 0.9, 1.1, 0.9
   183,'',   138, 1, 1, 1, 1, 1.0027762, -83.135997, 1.1, 0.9, 1.1, 0.9
   184,'',   138, 1, 1, 1, 1, 1.0025194, -83.167248, 1.1, 0.9, 1.1, 0.9
   185,'',   138, 1, 1, 1, 1, 1.0182001, -95.818894, 1.1, 0.9, 1.1, 0.9
   186,'',   138, 1, 1, 1, 1, 1.0177934, -95.867227, 1.1, 0.9, 1.1, 0.9
   187,'',   138, 1, 1, 1, 1, 1.0177804, -100.44586, 1.1, 0.9, 1.1, 0.9
   188,'',   138, 1, 1, 1, 1, 1.0176498, -100.46032, 1.1, 0.9, 1.1, 0.9
   189,'',   138, 1, 1, 1, 1, 1.0210683, -103.50345, 1.1, 0.9, 1.1, 0.9
   190,'',   138, 1, 1, 1, 1, 1.020942, -103.51687, 1.1, 0.9, 1.1, 0.9
   191,'',   138, 1, 1, 1, 1, 1.0240354, -102.60342, 1.1, 0.9, 1.1, 0.9
   192,'',   138, 1, 1, 1, 1, 1.023869, -102.62318, 1.1, 0.9, 1.1, 0.9
   193,'',   138, 1, 1, 1, 1, 1.0218274, -101.84424, 1.1, 0.9, 1.1, 0.9
   194,'',   138, 1, 1, 1, 1, 1.0215323, -101.87922, 1.1, 0.9, 1.1, 0.9
   195,'',   345, 1, 1, 1, 1, 1.0313182, -97.038704, 1.1, 0.9, 1.1, 0.9
   196,'',   138, 1, 1, 1, 1, 1.024337, -98.784149, 1.1, 0.9, 1.1, 0.9
   197,'',  13.8, 2, 1, 1, 1, 1.04, -92.179242, 1.1, 0.9, 1.1, 0.9
   198,'',  13.8, 2, 1, 1, 1, 1.04, -94.627035, 1.1, 0.9, 1.1, 0.9
   199,'',   138, 1, 1, 1, 1, 1.0232732, -98.901949, 1.1, 0.9, 1.1, 0.9
   200,'',   138, 1, 1, 1, 1, 1.0196429, -99.34071, 1.1, 0.9, 1.1, 0.9
...
0 / END OF BUS DATA, BEGIN LOAD DATA
2, '1', 1, 1, 1, 34.137, 9.103, 0, 0, 0, 0, 1, 1, 0
4, '1', 1, 1, 1, 105.83, 28.221, 0, 0, 0, 0, 1, 1, 0
6, '1', 1, 1, 1, 2.039, 0.544, 0, 0, 0, 0, 1, 1, 0
11, '1', 1, 1, 1, 1.518, 0.405, 0, 0, 0, 0, 1, 1, 0
13, '1', 1, 1, 1, 24.734, 6.596, 0, 0, 0, 0, 1, 1, 0
20, '1', 1, 1, 1, 2.789, 0.744, 0, 0, 0, 0, 1, 1, 0
22, '1', 1, 1, 1, 118.6, 31.626, 0, 0, 0, 0, 1, 1, 0
25, '1', 1, 1, 1, 1.291, 0.344, 0, 0, 0, 0, 1, 1, 0
26, '1', 1, 1, 1, 12.252, 3.267, 0, 0, 0, 0, 1, 1, 0
28, '1', 1, 1, 1, 35.592, 9.491, 0, 0, 0, 0, 1, 1, 0
30, '1', 1, 1, 1, 79.736, 21.263, 0, 0, 0, 0, 1, 1, 0
32, '1', 1, 1, 1, 5.997, 1.599, 0, 0, 0, 0, 1, 1, 0
34, '1', 1, 1, 1, 15.352, 4.094, 0, 0, 0, 0, 1, 1, 0
36, '1', 1, 1, 1, 26.622, 7.099, 0, 0, 0, 0, 1, 1, 0
38, '1', 1, 1, 1, 0.082, 0.022, 0, 0, 0, 0, 1, 1, 0
41, '1', 1, 1, 1, 32.798, 8.746, 0, 0, 0, 0, 1, 1, 0
43, '1', 1, 1, 1, 2.74, 0.731, 0, 0, 0, 0, 1, 1, 0
45, '1', 1, 1, 1, 1.62, 0.432, 0, 0, 0, 0, 1, 1, 0
47, '1', 1, 1, 1, 24.552, 6.547, 0, 0, 0, 0, 1, 1, 0
51, '1', 1, 1, 1, 0.217, 0.058, 0, 0, 0, 0, 1, 1, 0
52, '1', 1, 1, 1, 14.363, 3.83, 0, 0, 0, 0, 1, 1, 0
54, '1', 1, 1, 1, 27.763, 7.404, 0, 0, 0, 0, 1, 1, 0
56, '1', 1, 1, 1, 1.384, 0.369, 0, 0, 0, 0, 1, 1, 0
59, '1', 1, 1, 1, 93.807, 25.015, 0, 0, 0, 0, 1, 1, 0
61, '1', 1, 1, 1, 0.115, 0.031, 0, 0, 0, 0, 1, 1, 0
64, '1', 1, 1, 1, 27.737, 7.397, 0, 0, 0, 0, 1, 1, 0
67, '1', 1, 1, 1, 2.806, 0.748, 0, 0, 0, 0, 1, 1, 0
69, '1', 1, 1, 1, 9.593, 2.558, 0, 0, 0, 0, 1, 1, 0
75, '1', 1, 1, 1, 4.228, 1.127, 0, 0, 0, 0, 1, 1, 0
77, '1', 1, 1, 1, 4.41, 1.176, 0, 0, 0, 0, 1, 1, 0
79, '1', 1, 1, 1, 0.252, 0.067, 0, 0, 0, 0, 1, 1, 0
84, '1', 1, 1, 1, 37.711, 10.056, 0, 0, 0, 0, 1, 1, 0
86, '1', 1, 1, 1, 10.804, 2.881, 0, 0, 0, 0, 1, 1, 0
88, '1', 1, 1, 1, 3.333, 0.889, 0, 0, 0, 0, 1, 1, 0
90, '1', 1, 1, 1, 4.707, 1.255, 0, 0, 0, 0, 1, 1, 0
92, '1', 1, 1, 1, 42.992, 11.465, 0, 0, 0, 0, 1, 1, 0
94, '1', 1, 1, 1, 4.159, 1.109, 0, 0, 0, 0, 1, 1, 0
96, '1', 1, 1, 1, 22.478, 5.994, 0, 0, 0, 0, 1, 1, 0
98, '1', 1, 1, 1, 24.523, 6.539, 0, 0, 0, 0, 1, 1, 0
100, '1', 1, 1, 1, 7.647, 2.039, 0, 0, 0, 0, 1, 1, 0
101, '1', 1, 1, 1, 0.504, 0.134, 0, 0, 0, 0, 1, 1, 0
103, '1', 1, 1, 1, 23.829, 6.354, 0, 0, 0, 0, 1, 1, 0
105, '1', 1, 1, 1, 49.335, 13.156, 0, 0, 0, 0, 1, 1, 0
107, '1', 1, 1, 1, 9.829, 2.621, 0, 0, 0, 0, 1, 1, 0
109, '1', 1, 1, 1, 26.912, 7.176, 0, 0, 0, 0, 1, 1, 0
111, '1', 1, 1, 1, 35.229, 9.394, 0, 0, 0, 0, 1, 1, 0
113, '1', 1, 1, 1, 28.243, 7.532, 0, 0, 0, 0, 1, 1, 0
115, '1', 1, 1, 1, 3.108, 0.829, 0, 0, 0, 0, 1, 1, 0
116, '1', 1, 1, 1, 1.903, 0.508, 0, 0, 0, 0, 1, 1, 0
118, '1', 1, 1, 1, 5.424, 1.446, 0, 0, 0, 0, 1, 1, 0
120, '1', 1, 1, 1, 21.066, 5.618, 0, 0, 0, 0, 1, 1, 0
122, '1', 1, 1, 1, 42.562, 11.35, 0, 0, 0, 0, 1, 1, 0
130, '1', 1, 1, 1, 68.718, 18.325, 0, 0, 0, 0, 1, 1, 0
132, '1', 1, 1, 1, 14.254, 3.801, 0, 0, 0, 0, 1, 1, 0
134, '1', 1, 1, 1, 28.194, 7.518, 0, 0, 0, 0, 1, 1, 0
136, '1', 1, 1, 1, 21.341, 5.691, 0, 0, 0, 0, 1, 1, 0
138, '1', 1, 1, 1, 48.334, 12.889, 0, 0, 0, 0, 1, 1, 0
140, '1', 1, 1, 1, 0.144, 0.038, 0, 0, 0, 0, 1, 1, 0
142, '1', 1, 1, 1, 102.371, 27.299, 0, 0, 0, 0, 1, 1, 0
148, '1', 1, 1, 1, 45.797, 12.213, 0, 0, 0, 0, 1, 1, 0
150, '1', 1, 1, 1, 0.923, 0.246, 0, 0, 0, 0, 1, 1, 0
153, '1', 1, 1, 1, 52.685, 14.049, 0, 0, 0, 0, 1, 1, 0
155, '1', 1, 1, 1, 37.805, 10.081, 0, 0, 0, 0, 1, 1, 0
157, '1', 1, 1, 1, 70.189, 18.717, 0, 0, 0, 0, 1, 1, 0
159, '1', 1, 1, 1, 18.226, 4.86, 0, 0, 0, 0, 1, 1, 0
161, '1', 1, 1, 1, 15.938, 4.25, 0, 0, 0, 0, 1, 1, 0
164, '1', 1, 1, 1, 78.284, 20.876, 0, 0, 0, 0, 1, 1, 0
171, '1', 1, 1, 1, 8.182, 2.182, 0, 0, 0, 0, 1, 1, 0
173, '1', 1, 1, 1, 1.925, 0.513, 0, 0, 0, 0, 1, 1, 0
174, '1', 1, 1, 1, 4.486, 1.196, 0, 0, 0, 0, 1, 1, 0
177, '1', 1, 1, 1, 5.571, 1.486, 0, 0, 0, 0, 1, 1, 0
178, '1', 1, 1, 1, 4.323, 1.153, 0, 0, 0, 0, 1, 1, 0
180, '1', 1, 1, 1, 11.275, 3.007, 0, 0, 0, 0, 1, 1, 0
182, '1', 1, 1, 1, 54.619, 14.565, 0, 0, 0, 0, 1, 1, 0
184, '1', 1, 1, 1, 19.147, 5.106, 0, 0, 0, 0, 1, 1, 0
186, '1', 1, 1, 1, 29.981, 7.995, 0, 0, 0, 0, 1, 1, 0
188, '1', 1, 1, 1, 8.813, 2.35, 0, 0, 0, 0, 1, 1, 0
190, '1', 1, 1, 1, 8.641, 2.304, 0, 0, 0, 0, 1, 1, 0
192, '1', 1, 1, 1, 10.096, 2.692, 0, 0, 0, 0, 1, 1, 0
194, '1', 1, 1, 1, 17.622, 4.699, 0, 0, 0, 0, 1, 1, 0
199, '1', 1, 1, 1, 68.907, 18.375, 0, 0, 0, 0, 1, 1, 0
201, '1', 1, 1, 1, 7.09, 1.891, 0, 0, 0, 0, 1, 1, 0
203, '1', 1, 1, 1, 2.88, 0.768, 0, 0, 0, 0, 1, 1, 0
204, '1', 1, 1, 1, 28.044, 7.479, 0, 0, 0, 0, 1, 1, 0
206, '1', 1, 1, 1, 1.848, 0.493, 0, 0, 0, 0, 1, 1, 0
207, '1', 1, 1, 1, 13.862, 3.697, 0, 0, 0, 0, 1, 1, 0
209, '1', 1, 1, 1, 54.482, 14.529, 0, 0, 0, 0, 1, 1, 0
211, '1', 1, 1, 1, 19.387, 5.17, 0, 0, 0, 0, 1, 1, 0
213, '1', 1, 1, 1, 59.865, 15.964, 0, 0, 0, 0, 1, 1, 0
215, '1', 1, 1, 1, 51.879, 13.834, 0, 0, 0, 0, 1, 1, 0
217, '1', 1, 1, 1, 36.675, 9.78, 0, 0, 0, 0, 1, 1, 0
219, '1', 1, 1, 1, 0.205, 0.055, 0, 0, 0, 0, 1, 1, 0
227, '1', 1, 1, 1, 3.586, 0.956, 0, 0, 0, 0, 1, 1, 0
229, '1', 1, 1, 1, 35.761, 9.536, 0, 0, 0, 0, 1, 1, 0
234, '1', 1, 1, 1, 47.827, 12.754, 0, 0, 0, 0, 1, 1, 0
237, '1', 1, 1, 1, 1.665, 0.444, 0, 0, 0, 0, 1, 1, 0
239, '1', 1, 1, 1, 22.132, 5.902, 0, 0, 0, 0, 1, 1, 0
241, '1', 1, 1, 1, 12.123, 3.233, 0, 0, 0, 0, 1, 1, 0
243, '1', 1, 1, 1, 59.393, 15.838, 0, 0, 0, 0, 1, 1, 0
245, '1', 1, 1, 1, 7.268, 1.938, 0, 0, 0, 0, 1, 1, 0
252, '1', 1, 1, 1, 78.995, 21.065, 0, 0, 0, 0, 1, 1, 0
259, '1', 1, 1, 1, 5.431, 1.448, 0, 0, 0, 0, 1, 1, 0
261, '1', 1, 1, 1, 12.353, 3.294, 0, 0, 0, 0, 1, 1, 0
266, '1', 1, 1, 1, 49.276, 13.14, 0, 0, 0, 0, 1, 1, 0
268, '1', 1, 1, 1, 71.942, 19.185, 0, 0, 0, 0, 1, 1, 0
270, '1', 1, 1, 1, 4.177, 1.114, 0, 0, 0, 0, 1, 1, 0
273, '1', 1, 1, 1, 5.829, 1.554, 0, 0, 0, 0, 1, 1, 0
277, '1', 1, 1, 1, 0.323, 0.086, 0, 0, 0, 0, 1, 1, 0
278, '1', 1, 1, 1, 4.601, 1.227, 0, 0, 0, 0, 1, 1, 0
280, '1', 1, 1, 1, 11.278, 3.007, 0, 0, 0, 0, 1, 1, 0
282, '1', 1, 1, 1, 77.553, 20.681, 0, 0, 0, 0, 1, 1, 0
284, '1', 1, 1, 1, 20.05, 5.347, 0, 0, 0, 0, 1, 1, 0
286, '1', 1, 1, 1, 5.466, 1.458, 0, 0, 0, 0, 1, 1, 0
288, '1', 1, 1, 1, 46.345, 12.359, 0, 0, 0, 0, 1, 1, 0
290, '1', 1, 1, 1, 2.44, 0.651, 0, 0, 0, 0, 1, 1, 0
292, '1', 1, 1, 1, 6.075, 1.62, 0, 0, 0, 0, 1, 1, 0
294, '1', 1, 1, 1, 15.724, 4.193, 0, 0, 0, 0, 1, 1, 0
296, '1', 1, 1, 1, 4.405, 1.175, 0, 0, 0, 0, 1, 1, 0
299, '1', 1, 1, 1, 8.946, 2.386, 0, 0, 0, 0, 1, 1, 0
303, '1', 1, 1, 1, 55.047, 14.679, 0, 0, 0, 0, 1, 1, 0
307, '1', 1, 1, 1, 50.615, 13.497, 0, 0, 0, 0, 1, 1, 0
309, '1', 1, 1, 1, 5.545, 1.479, 0, 0, 0, 0, 1, 1, 0
311, '1', 1, 1, 1, 28.978, 7.727, 0, 0, 0, 0, 1, 1, 0
313, '1', 1, 1, 1, 7.638, 2.037, 0, 0, 0, 0, 1, 1, 0
315, '1', 1, 1, 1, 0.241, 0.064, 0, 0, 0, 0, 1, 1, 0
317, '1', 1, 1, 1, 2.381, 0.635, 0, 0, 0, 0, 1, 1, 0
321, '1', 1, 1, 1, 119.975, 31.993, 0, 0, 0, 0, 1, 1, 0
323, '1', 1, 1, 1, 30.132, 8.035, 0, 0, 0, 0, 1, 1, 0
325, '1', 1, 1, 1, 68.864, 18.364, 0, 0, 0, 0, 1, 1, 0
327, '1', 1, 1, 1, 96.562, 25.75, 0, 0, 0, 0, 1, 1, 0
329, '1', 1, 1, 1, 17.202, 4.587, 0, 0, 0, 0, 1, 1, 0
331, '1', 1, 1, 1, 32.336, 8.623, 0, 0, 0, 0, 1, 1, 0
334, '1', 1, 1, 1, 0.283, 0.076, 0, 0, 0, 0, 1, 1, 0
335, '1', 1, 1, 1, 0.472, 0.126, 0, 0, 0, 0, 1, 1, 0
337, '1', 1, 1, 1, 3.599, 0.96, 0, 0, 0, 0, 1, 1, 0
339, '1', 1, 1, 1, 47.654, 12.708, 0, 0, 0, 0, 1, 1, 0
341, '1', 1, 1, 1, 16.122, 4.299, 0, 0, 0, 0, 1, 1, 0
343, '1', 1, 1, 1, 1.542, 0.411, 0, 0, 0, 0, 1, 1, 0
344, '1', 1, 1, 1, 1.492, 0.398, 0, 0, 0, 0, 1, 1, 0
346, '1', 1, 1, 1, 37.952, 10.12, 0, 0, 0, 0, 1, 1, 0
348, '1', 1, 1, 1, 57.506, 15.335, 0, 0, 0, 0, 1, 1, 0
355, '1', 1, 1, 1, 15.924, 4.246, 0, 0, 0, 0, 1, 1, 0
357, '1', 1, 1, 1, 37.097, 9.892, 0, 0, 0, 0, 1, 1, 0
359, '1', 1, 1, 1, 8.957, 2.389, 0, 0, 0, 0, 1, 1, 0
364, '1', 1, 1, 1, 17.215, 4.591, 0, 0, 0, 0, 1, 1, 0
366, '1', 1, 1, 1, 45.056, 12.015, 0, 0, 0, 0, 1, 1, 0
368, '1', 1, 1, 1, 7.573, 2.019, 0, 0, 0, 0, 1, 1, 0
370, '1', 1, 1, 1, 23.539, 6.277, 0, 0, 0, 0, 1, 1, 0
373, '1', 1, 1, 1, 22.999, 6.133, 0, 0, 0, 0, 1, 1, 0
375, '1', 1, 1, 1, 19.752, 5.267, 0, 0, 0, 0, 1, 1, 0
377, '1', 1, 1, 1, 51.121, 13.632, 0, 0, 0, 0, 1, 1, 0
379, '1', 1, 1, 1, 8.255, 2.201, 0, 0, 0, 0, 1, 1, 0
381, '1', 1, 1, 1, 5.73, 1.528, 0, 0, 0, 0, 1, 1, 0
383, '1', 1, 1, 1, 16.937, 4.516, 0, 0, 0, 0, 1, 1, 0
385, '1', 1, 1, 1, 24.375, 6.5, 0, 0, 0, 0, 1, 1, 0
397, '1', 1, 1, 1, 26.415, 7.044, 0, 0, 0, 0, 1, 1, 0
398, '1', 1, 1, 1, 11.085, 2.956, 0, 0, 0, 0, 1, 1, 0
400, '1', 1, 1, 1, 14.14, 3.771, 0, 0, 0, 0, 1, 1, 0
402, '1', 1, 1, 1, 56.056, 14.948, 0, 0, 0, 0, 1, 1, 0
404, '1', 1, 1, 1, 12.141, 3.238, 0, 0, 0, 0, 1, 1, 0
406, '1', 1, 1, 1, 3.331, 0.888, 0, 0, 0, 0, 1, 1, 0
416, '1', 1, 1, 1, 4.836, 1.29, 0, 0, 0, 0, 1, 1, 0
418, '1', 1, 1, 1, 42.342, 11.291, 0, 0, 0, 0, 1, 1, 0
420, '1', 1, 1, 1, 3.209, 0.856, 0, 0, 0, 0, 1, 1, 0
422, '1', 1, 1, 1, 39.225, 10.46, 0, 0, 0, 0, 1, 1, 0
424, '1', 1, 1, 1, 99.676, 26.58, 0, 0, 0, 0, 1, 1, 0
427, '1', 1, 1, 1, 8.864, 2.364, 0, 0, 0, 0, 1, 1, 0
446, '1', 1, 1, 1, 59.028, 15.741, 0, 0, 0, 0, 1, 1, 0
448, '1', 1, 1, 1, 32.553, 8.681, 0, 0, 0, 0, 1, 1, 0
450, '1', 1, 1, 1, 0.635, 0.169, 0, 0, 0, 0, 1, 1, 0
451, '1', 1, 1, 1, 1.25, 0.333, 0, 0, 0, 0, 1, 1, 0
452, '1', 1, 1, 1, 7.083, 1.889, 0, 0, 0, 0, 1, 1, 0
459, '1', 1, 1, 1, 47.25, 12.6, 0, 0, 0, 0, 1, 1, 0
460, '1', 1, 1, 1, 14.899, 3.973, 0, 0, 0, 0, 1, 1, 0
461, '1', 1, 1, 1, 61.05, 16.28, 0, 0, 0, 0, 1, 1, 0
465, '1', 1, 1, 1, 7.082, 1.889, 0, 0, 0, 0, 1, 1, 0
466, '1', 1, 1, 1, 24.511, 6.536, 0, 0, 0, 0, 1, 1, 0
467, '1', 1, 1, 1, 0.534, 0.142, 0, 0, 0, 0, 1, 1, 0
468, '1', 1, 1, 1, 2.487, 0.663, 0, 0, 0, 0, 1, 1, 0
469, '1', 1, 1, 1, 85.551, 22.814, 0, 0, 0, 0, 1, 1, 0
470, '1', 1, 1, 1, 28.137, 7.503, 0, 0, 0, 0, 1, 1, 0
472, '1', 1, 1, 1, 28.116, 7.498, 0, 0, 0, 0, 1, 1, 0
473, '1', 1, 1, 1, 0.66, 0.176, 0, 0, 0, 0, 1, 1, 0
474, '1', 1, 1, 1, 111.304, 29.681, 0, 0, 0, 0, 1, 1, 0
475, '1', 1, 1, 1, 0.129, 0.034, 0, 0, 0, 0, 1, 1, 0
476, '1', 1, 1, 1, 47.74, 12.731, 0, 0, 0, 0, 1, 1, 0
477, '1', 1, 1, 1, 17.719, 4.725, 0, 0, 0, 0, 1, 1, 0
478, '1', 1, 1, 1, 5.81, 1.549, 0, 0, 0, 0, 1, 1, 0
485, '1', 1, 1, 1, 22.236, 5.93, 0, 0, 0, 0, 1, 1, 0
486, '1', 1, 1, 1, 54.663, 14.577, 0, 0, 0, 0, 1, 1, 0
487, '1', 1, 1, 1, 7.713, 2.057, 0, 0, 0, 0, 1, 1, 0
488, '1', 1, 1, 1, 65.16, 17.376, 0, 0, 0, 0, 1, 1, 0
489, '1', 1, 1, 1, 2.261, 0.602, 0, 0, 0, 0, 1, 1, 0
490, '1', 1, 1, 1, 19.709, 5.256, 0, 0, 0, 0, 1, 1, 0
491, '1', 1, 1, 1, 95.335, 25.423, 0, 0, 0, 0, 1, 1, 0
492, '1', 1, 1, 1, 37.779, 10.074, 0, 0, 0, 0, 1, 1, 0
493, '1', 1, 1, 1, 2.568, 0.685, 0, 0, 0, 0, 1, 1, 0
495, '1', 1, 1, 1, 42.517, 11.338, 0, 0, 0, 0, 1, 1, 0
499, '1', 1, 1, 1, 97.565, 26.017, 0, 0, 0, 0, 1, 1, 0
500, '1', 1, 1, 1, 14.389, 3.837, 0, 0, 0, 0, 1, 1, 0
0 / END OF LOAD DATA, BEGIN FIXED SHUNT DATA
0 / END OF FIXED SHUNT DATA, BEGIN GENERATOR DATA
9, '1', 566.71183, -94.16, 359.659, -94.16, 1.04, 0, 0, 0, 1.0, 0, 0, 1, 1, 1, 771.8, 231.54, 1, 1, 0, 1, 0, 1, 0, 1, 0, 1
16, '1', 444.45, -36.445, 163.558, -36.445, 1.04, 0, 0, 0, 1.0, 0, 0, 1, 1, 1, 444.45, 133.335, 1, 1, 0, 1, 0, 1, 0, 1, 0, 1
17, '1', 888.9, -72.89, 327.115, -72.89, 1.04, 0, 0, 0, 1.0, 0, 0, 1, 1, 1, 888.9, 266.67, 1, 1, 0, 1, 0, 1, 0, 1, 0, 1
18, '1', 157.6, -12.923, 57.997, -12.923, 1.04, 0, 0, 0, 1.0, 0, 0, 1, 1, 1, 157.6, 47.28, 1, 1, 0, 1, 0, 1, 0, 1, 0, 1
49, '1', 1.3, -0.159, 0.606, -0.159, 1.006186, 0, 0, 0, 1.0, 0, 0, 1, 1, 1, 1.3, 0.39, 1, 1, 0, 1, 0, 1, 0, 1, 0, 1
50, '1', 2.6, -0.317, 1.212, -0.317, 1.0064884, 0, 0, 0, 1.0, 0, 0, 1, 1, 1, 2.6, 0.78, 1, 1, 0, 1, 0, 1, 0, 1, 0, 1
63, '1', 0.98220731, -0.355, 1.629, -0.355, 1.0079763, 0, 0, 0, 1.0, 0, 0, 1, 1, 1, 3.2, 0.96, 1, 1, 0, 1, 0, 1, 0, 1, 0, 1
71, '1', 0.635, -0.196, 1.536, -0.196, 1.013692, 0, 0, 0, 1.0, 0, 0, 1, 1, 1, 0.635, 0, 1, 1, 0, 1, 0, 1, 0, 1, 0, 1
72, '1', 0.317, -0.098, 0.768, -0.098, 1.0141136, 0, 0, 0, 1.0, 0, 0, 1, 1, 1, 0.317, 0, 1, 1, 0, 1, 0, 1, 0, 1, 0, 1
73, '1', 0.222, -0.069, 0.538, -0.069, 1.0144835, 0, 0, 0, 1.0, 0, 0, 1, 1, 1, 0.222, 0, 1, 1, 0, 1, 0, 1, 0, 1, 0, 1
82, '1', 57.439, -17.733, 138.97, -17.733, 1.04, 0, 0, 0, 1.0, 0, 0, 1, 1, 1, 57.439, 0, 1, 1, 0, 1, 0, 1, 0, 1, 0, 1
125, '1', 25.712, -7.938, 62.208, -7.938, 1.04, 0, 0, 0, 1.0, 0, 0, 1, 1, 1, 25.712, 0, 1, 1, 0, 1, 0, 1, 0, 1, 0, 1
126, '1', 25.712, -7.938, 62.208, -7.938, 1.04, 0, 0, 0, 1.0, 0, 0, 1, 1, 1, 25.712, 0, 1, 1, 0, 1, 0, 1, 0, 1, 0, 1
127, '1', 25.712, -7.938, 62.208, -7.938, 1.04, 0, 0, 0, 1.0, 0, 0, 1, 1, 1, 25.712, 0, 1, 1, 0, 1, 0, 1, 0, 1, 0, 1
128, '1', 25.712, -7.938, 62.208, -7.938, 1.04, 0, 0, 0, 1.0, 0, 0, 1, 1, 1, 25.712, 0, 1, 1, 0, 1, 0, 1, 0, 1, 0, 1
144, '1', 602.55, -49.409, 221.738, -49.409, 1.04, 0, 0, 0, 1.0, 0, 0, 1, 1, 1, 602.55, 180.765, 1, 1, 0, 1, 0, 1, 0, 1, 0, 1
145, '1', 602.55, -49.409, 221.738, -49.409, 1.04, 0, 0, 0, 1.0, 0, 0, 1, 1, 1, 602.55, 180.765, 1, 1, 0, 1, 0, 1, 0, 1, 0, 1
167, '1', 30.711, -9.482, 74.304, -9.482, 1.04, 0, 0, 0, 1.0, 0, 0, 1, 1, 1, 30.711, 0, 1, 1, 0, 1, 0, 1, 0, 1, 0, 1
168, '1', 30.711, -9.482, 74.304, -9.482, 1.04, 0, 0, 0, 1.0, 0, 0, 1, 1, 1, 30.711, 0, 1, 1, 0, 1, 0, 1, 0, 1, 0, 1
169, '1', 61.422, -18.963, 148.608, -18.963, 1.04, 0, 0, 0, 1.0, 0, 0, 1, 1, 1, 61.422, 0, 1, 1, 0, 1, 0, 1, 0, 1, 0, 1
197, '1', 293.6, -35.819, 136.818, -35.819, 1.04, 0, 0, 0, 1.0, 0, 0, 1, 1, 1, 293.6, 88.08, 1, 1, 0, 1, 0, 1, 0, 1, 0, 1
198, '1', 207.3, -25.291, 96.602, -25.291, 1.04, 0, 0, 0, 1.0, 0, 0, 1, 1, 1, 207.3, 62.19, 1, 1, 0, 1, 0, 1, 0, 1, 0, 1
222, '1', 0.825, -0.255, 1.997, -0.255, 1.0386676, 0, 0, 0, 1.0, 0, 0, 1, 1, 1, 0.825, 0, 1, 1, 0, 1, 0, 1, 0, 1, 0, 1
223, '1', 2.857, -0.882, 6.912, -0.882, 1.04, 0, 0, 0, 1.0, 0, 0, 1, 1, 1, 2.857, 0, 1, 1, 0, 1, 0, 1, 0, 1, 0, 1
224, '1', 81.135, -25.049, 196.301, -25.049, 1.04, 0, 0, 0, 1.0, 0, 0, 1, 1, 1, 81.135, 0, 1, 1, 0, 1, 0, 1, 0, 1, 0, 1
225, '1', 81.706, -25.225, 197.683, -25.225, 1.04, 0, 0, 0, 1.0, 0, 0, 1, 1, 1, 81.706, 0, 1, 1, 0, 1, 0, 1, 0, 1, 0, 1
231, '1', 2.9, -0.354, 1.351, -0.354, 1.0148023, 0, 0, 0, 1.0, 0, 0, 1, 1, 1, 2.9, 0.87, 1, 1, 0, 1, 0, 1, 0, 1, 0, 1
248, '1', 0, -1.588, 67.799, -14.785, 1.0355516, 0, 0, 0, 1.0, 0, 0, 1, 0, 1, 133.2, 39.96, 1, 1, 0, 1, 0, 1, 0, 1, 0, 1
249, '1', 0, -1.722, 67.799, -14.785, 1.0355516, 0, 0, 0, 1.0, 0, 0, 1, 0, 1, 133.2, 39.96, 1, 1, 0, 1, 0, 1, 0, 1, 0, 1
250, '1', 0, -9.015, 271.195, -59.141, 1.0355516, 0, 0, 0, 1.0, 0, 0, 1, 0, 1, 532.8, 159.84, 1, 1, 0, 1, 0, 1, 0, 1, 0, 1
254, '1', 4.1, -0.5, 1.911, -0.5, 1.0138642, 0, 0, 0, 1.0, 0, 0, 1, 1, 1, 4.1, 1.23, 1, 1, 0, 1, 0, 1, 0, 1, 0, 1
255, '1', 3.3, -0.403, 1.538, -0.403, 1.0128645, 0, 0, 0, 1.0, 0, 0, 1, 1, 1, 3.3, 0.99, 1, 1, 0, 1, 0, 1, 0, 1, 0, 1
256, '1', 2.9, -0.354, 1.351, -0.354, 1.0138612, 0, 0, 0, 1.0, 0, 0, 1, 1, 1, 2.9, 0.87, 1, 1, 0, 1, 0, 1, 0, 1, 0, 1
257, '1', 5.4, -0.659, 2.516, -0.659, 1.0133094, 0, 0, 0, 1.0, 0, 0, 1, 1, 1, 5.4, 1.62, 1, 1, 0, 1, 0, 1, 0, 1, 0, 1
258, '1', 1.1, -0.134, 0.513, -0.134, 1.0125834, 0, 0, 0, 1.0, 0, 0, 1, 1, 1, 1.1, 0.33, 1, 1, 0, 1, 0, 1, 0, 1, 0, 1
264, '1', 0, 19.953, 19.953, -4.351, 1.0294991, 0, 0, 0, 1.0, 0, 0, 1, 0, 1, 39.2, 11.76, 1, 1, 0, 1, 0, 1, 0, 1, 0, 1
265, '1', 0, 5.395, 5.395, -1.177, 1.0294991, 0, 0, 0, 1.0, 0, 0, 1, 0, 1, 10.6, 3.18, 1, 1, 0, 1, 0, 1, 0, 1, 0, 1
275, '1', 0, 41.992, 51.511, -11.233, 1.0081989, 0, 0, 0, 1.0, 0, 0, 1, 0, 1, 101.2, 30.36, 1, 1, 0, 1, 0, 1, 0, 1, 0, 1
301, '1', 2.9, -0.354, 1.351, -0.354, 1.0047481, 0, 0, 0, 1.0, 0, 0, 1, 1, 1, 2.9, 0.87, 1, 1, 0, 1, 0, 1, 0, 1, 0, 1
302, '1', 2.9, -0.354, 1.351, -0.354, 1.0047443, 0, 0, 0, 1.0, 0, 0, 1, 1, 1, 2.9, 0.87, 1, 1, 0, 1, 0, 1, 0, 1, 0, 1
305, '1', 0.159, -0.049, 0.384, -0.049, 1.008432, 0, 0, 0, 1.0, 0, 0, 1, 1, 1, 0.159, 0, 1, 1, 0, 1, 0, 1, 0, 1, 0, 1
306, '1', 0.381, -0.118, 0.922, -0.118, 1.0086627, 0, 0, 0, 1.0, 0, 0, 1, 1, 1, 0.381, 0, 1, 1, 0, 1, 0, 1, 0, 1, 0, 1
319, '1', 6.714, -2.073, 16.243, -2.073, 1.0395754, 0, 0, 0, 1.0, 0, 0, 1, 1, 1, 6.714, 0, 1, 1, 0, 1, 0, 1, 0, 1, 0, 1
350, '1', 2.381, -0.735, 5.76, -0.735, 1.032601, 0, 0, 0, 1.0, 0, 0, 1, 1, 1, 2.381, 0, 1, 1, 0, 1, 0, 1, 0, 1, 0, 1
351, '1', 0.984, -0.304, 2.381, -0.304, 1.0304141, 0, 0, 0, 1.0, 0, 0, 1, 1, 1, 0.984, 0, 1, 1, 0, 1, 0, 1, 0, 1, 0, 1
352, '1', 2.285, -0.706, 5.53, -0.706, 1.0324746, 0, 0, 0, 1.0, 0, 0, 1, 1, 1, 2.285, 0, 1, 1, 0, 1, 0, 1, 0, 1, 0, 1
353, '1', 11.745, -3.626, 28.416, -3.626, 1.04, 0, 0, 0, 1.0, 0, 0, 1, 1, 1, 11.745, 0, 1, 1, 0, 1, 0, 1, 0, 1, 0, 1
361, '1', 0, 0.814, 0.814, -0.178, 1.0194701, 0, 0, 0, 1.0, 0, 0, 1, 0, 1, 1.6, 0.48, 1, 1, 0, 1, 0, 1, 0, 1, 0, 1
362, '1', 0, 5.599, 5.599, -1.221, 1.0194701, 0, 0, 0, 1.0, 0, 0, 1, 0, 1, 11, 3.3, 1, 1, 0, 1, 0, 1, 0, 1, 0, 1
363, '1', 0, 1.629, 1.629, -0.355, 1.0194701, 0, 0, 0, 1.0, 0, 0, 1, 0, 1, 3.2, 0.96, 1, 1, 0, 1, 0, 1, 0, 1, 0, 1
388, '1', 3.0693979, -1.11, 5.09, -1.11, 1.0380111, 0, 0, 0, 1.0, 0, 0, 1, 1, 1, 10, 3, 1, 1, 0, 1, 0, 1, 0, 1, 0, 1
389, '1', 0, 8.069, 88.227, -19.24, 1.0359208, 0, 0, 0, 1.0, 0, 0, 1, 0, 1, 173.333, 52, 1, 1, 0, 1, 0, 1, 0, 1, 0, 1
390, '1', 0, 10.264, 88.227, -19.24, 1.0359208, 0, 0, 0, 1.0, 0, 0, 1, 0, 1, 173.333, 52, 1, 1, 0, 1, 0, 1, 0, 1, 0, 1
391, '1', 0, 10.31, 88.227, -19.24, 1.0359208, 0, 0, 0, 1.0, 0, 0, 1, 0, 1, 173.333, 52, 1, 1, 0, 1, 0, 1, 0, 1, 0, 1
392, '1', 35.727791, -12.92, 59.248, -12.92, 1.04, 0, 0, 0, 1.0, 0, 0, 1, 1, 1, 116.4, 34.92, 1, 1, 0, 1, 0, 1, 0, 1, 0, 1
393, '1', 35.727791, -12.92, 59.248, -12.92, 1.04, 0, 0, 0, 1.0, 0, 0, 1, 1, 1, 116.4, 34.92, 1, 1, 0, 1, 0, 1, 0, 1, 0, 1
394, '1', 35.727791, -12.92, 59.248, -12.92, 1.04, 0, 0, 0, 1.0, 0, 0, 1, 1, 1, 116.4, 34.92, 1, 1, 0, 1, 0, 1, 0, 1, 0, 1
395, '1', 35.727791, -12.92, 59.248, -12.92, 1.04, 0, 0, 0, 1.0, 0, 0, 1, 1, 1, 116.4, 34.92, 1, 1, 0, 1, 0, 1, 0, 1, 0, 1
396, '1', 35.727791, -12.92, 59.248, -12.92, 1.04, 0, 0, 0, 1.0, 0, 0, 1, 1, 1, 116.4, 34.92, 1, 1, 0, 1, 0, 1, 0, 1, 0, 1
409, '1', 30.693979, -11.1, 50.9, -11.1, 1.04, 0, 0, 0, 1.0, 0, 0, 1, 1, 1, 100, 30, 1, 1, 0, 1, 0, 1, 0, 1, 0, 1
410, '1', 41.370086, -15.201, 69.708, -15.201, 1.04, 0, 0, 0, 1.0, 0, 0, 1, 1, 1, 136.95, 41.085, 1, 1, 0, 1, 0, 1, 0, 1, 0, 1
411, '1', 41.370086, -15.201, 69.708, -15.201, 1.04, 0, 0, 0, 1.0, 0, 0, 1, 1, 1, 136.95, 41.085, 1, 1, 0, 1, 0, 1, 0, 1, 0, 1
412, '1', 41.370086, -15.201, 69.708, -15.201, 1.04, 0, 0, 0, 1.0, 0, 0, 1, 1, 1, 136.95, 41.085, 1, 1, 0, 1, 0, 1, 0, 1, 0, 1
413, '1', 41.370086, -15.201, 69.708, -15.201, 1.04, 0, 0, 0, 1.0, 0, 0, 1, 1, 1, 136.95, 41.085, 1, 1, 0, 1, 0, 1, 0, 1, 0, 1
414, '1', 34.10101, -12.332, 56.55, -12.332, 1.04, 0, 0, 0, 1.0, 0, 0, 1, 1, 1, 111.1, 33.33, 1, 1, 0, 1, 0, 1, 0, 1, 0, 1
430, '1', 0.159, -0.049, 0.384, -0.049, 1.0371896, 0, 0, 0, 1.0, 0, 0, 1, 1, 1, 0.159, 0, 1, 1, 0, 1, 0, 1, 0, 1, 0, 1
431, '1', 0.524, -0.162, 1.267, -0.162, 1.0373997, 0, 0, 0, 1.0, 0, 0, 1, 1, 1, 0.524, 0, 1, 1, 0, 1, 0, 1, 0, 1, 0, 1
432, '1', 0.19, -0.059, 0.461, -0.059, 1.0370941, 0, 0, 0, 1.0, 0, 0, 1, 1, 1, 0.19, 0, 1, 1, 0, 1, 0, 1, 0, 1, 0, 1
433, '1', 1.063, -0.328, 2.573, -0.328, 1.0392129, 0, 0, 0, 1.0, 0, 0, 1, 1, 1, 1.063, 0, 1, 1, 0, 1, 0, 1, 0, 1, 0, 1
434, '1', 0.682, -0.211, 1.651, -0.211, 1.0373148, 0, 0, 0, 1.0, 0, 0, 1, 1, 1, 0.682, 0, 1, 1, 0, 1, 0, 1, 0, 1, 0, 1
435, '1', 31.267, -9.653, 75.648, -9.653, 1.04, 0, 0, 0, 1.0, 0, 0, 1, 1, 1, 31.267, 0, 1, 1, 0, 1, 0, 1, 0, 1, 0, 1
436, '1', 31.267, -9.653, 75.648, -9.653, 1.04, 0, 0, 0, 1.0, 0, 0, 1, 1, 1, 31.267, 0, 1, 1, 0, 1, 0, 1, 0, 1, 0, 1
437, '1', 31.267, -9.653, 75.648, -9.653, 1.04, 0, 0, 0, 1.0, 0, 0, 1, 1, 1, 31.267, 0, 1, 1, 0, 1, 0, 1, 0, 1, 0, 1
438, '1', 31.267, -9.653, 75.648, -9.653, 1.04, 0, 0, 0, 1.0, 0, 0, 1, 1, 1, 31.267, 0, 1, 1, 0, 1, 0, 1, 0, 1, 0, 1
439, '1', 31.267, -9.653, 75.648, -9.653, 1.04, 0, 0, 0, 1.0, 0, 0, 1, 1, 1, 31.267, 0, 1, 1, 0, 1, 0, 1, 0, 1, 0, 1
442, '1', 33.149497, -11.988, 54.972, -11.988, 1.04, 0, 0, 0, 1.0, 0, 0, 1, 1, 1, 108, 32.4, 1, 1, 0, 1, 0, 1, 0, 1, 0, 1
443, '1', 53.714463, -19.425, 89.075, -19.425, 1.04, 0, 0, 0, 1.0, 0, 0, 1, 1, 1, 175, 52.5, 1, 1, 0, 1, 0, 1, 0, 1, 0, 1
444, '1', 1.0129013, -0.366, 1.68, -0.366, 1.0323196, 0, 0, 0, 1.0, 0, 0, 1, 1, 1, 3.3, 0.99, 1, 1, 0, 1, 0, 1, 0, 1, 0, 1
455, '1', 67.313925, -24.735, 113.422, -24.735, 1.04, 0, 0, 0, 1.0, 0, 0, 1, 1, 1, 222.833, 66.85, 1, 1, 0, 1, 0, 1, 0, 1, 0, 1
456, '1', 134.62785, -49.469, 226.844, -49.469, 1.04, 0, 0, 0, 1.0, 0, 0, 1, 1, 1, 445.667, 133.7, 1, 1, 0, 1, 0, 1, 0, 1, 0, 1
458, '1', 109.6, 0, 0, 0, 1.0190864, 0, 0, 0, 1.0, 0, 0, 1, 1, 1, 109.6, 32.88, 1, 1, 0, 1, 0, 1, 0, 1, 0, 1
463, '1', 7.2, -0.878, 3.355, -0.878, 1.0307197, 0, 0, 0, 1.0, 0, 0, 1, 1, 1, 7.2, 2.16, 1, 1, 0, 1, 0, 1, 0, 1, 0, 1
480, '1', 8.888, -2.744, 21.504, -2.744, 1.01, 0, 0, 0, 1.0, 0, 0, 1, 1, 1, 8.888, 0, 1, 1, 0, 1, 0, 1, 0, 1, 0, 1
481, '1', 7.142, -2.205, 17.28, -2.205, 1.01, 0, 0, 0, 1.0, 0, 0, 1, 1, 1, 7.142, 0, 1, 1, 0, 1, 0, 1, 0, 1, 0, 1
482, '1', 7.142, -2.205, 17.28, -2.205, 1.01, 0, 0, 0, 1.0, 0, 0, 1, 1, 1, 7.142, 0, 1, 1, 0, 1, 0, 1, 0, 1, 0, 1
483, '1', 3.809, -1.176, 9.216, -1.176, 1.01, 0, 0, 0, 1.0, 0, 0, 1, 1, 1, 3.809, 0, 1, 1, 0, 1, 0, 1, 0, 1, 0, 1
484, '1', 4.444, -1.372, 10.752, -1.372, 1.01, 0, 0, 0, 1.0, 0, 0, 1, 1, 1, 4.444, 0, 1, 1, 0, 1, 0, 1, 0, 1, 0, 1
494, '1', 5.8, -0.708, 2.703, -0.708, 1.0248154, 0, 0, 0, 1.0, 0, 0, 1, 1, 1, 5.8, 1.74, 1, 1, 0, 1, 0, 1, 0, 1, 0, 1
497, '1', 9.523, -2.94, 23.04, -2.94, 1.0372025, 0, 0, 0, 1.0, 0, 0, 1, 1, 1, 9.523, 0, 1, 1, 0, 1, 0, 1, 0, 1, 0, 1
498, '1', 2.857, -0.882, 6.912, -0.882, 1.0307005, 0, 0, 0, 1.0, 0, 0, 1, 1, 1, 2.857, 0, 1, 1, 0, 1, 0, 1, 0, 1, 0, 1
0 / END OF GENERATOR DATA, BEGIN BRANCH DATA
2, 1, '1', 0.000530993, 0.00313968, 0, 76.5, 76.5, 76.5, 0, 0, 0, 0, 1, 1, 0, 1, 1, 0, 1, 0, 1, 0, 1
44, 1, '1', 0.00547862, 0.0502567, 0.0178098, 250, 250, 250, 0, 0, 0, 0, 1, 1, 0, 1, 1, 0, 1, 0, 1, 0, 1
421, 1, '1', 0.00536892, 0.0515552, 0.0166426, 200, 200, 200, 0, 0, 0, 0, 1, 1, 0, 1, 1, 0, 1, 0, 1, 0, 1
4, 3, '1', 0.000692061, 0.00351835, 0, 225.1, 225.1, 225.1, 0, 0, 0, 0, 1, 1, 0, 1, 1, 0, 1, 0, 1, 0, 1
62, 3, '1', 0.0027178, 0.0260978, 0.00842465, 250, 250, 250, 0, 0, 0, 0, 1, 1, 0, 1, 1, 0, 1, 0, 1, 0, 1
3, 479, '1', 0.00725845, 0.0696995, 0.0224998, 145, 145, 145, 0, 0, 0, 0, 1, 1, 0, 1, 1, 0, 1, 0, 1, 0, 1
6, 5, '1', 0.000555857, 0.00356302, 0, 4.5, 4.5, 4.5, 0, 0, 0, 0, 1, 1, 0, 1, 1, 0, 1, 0, 1, 0, 1
316, 5, '1', 0.00244518, 0.0234799, 0.00757958, 145, 145, 145, 0, 0, 0, 0, 1, 1, 0, 1, 1, 0, 1, 0, 1, 0, 1
401, 5, '1', 0.00488619, 0.0469198, 0.0151462, 145, 145, 145, 0, 0, 0, 0, 1, 1, 0, 1, 1, 0, 1, 0, 1, 0, 1
7, 232, '1', 0.00111912, 0.0148076, 0.312051, 1100, 1100, 1100, 0, 0, 0, 0, 1, 1, 0, 1, 1, 0, 1, 0, 1, 0, 1
7, 262, '1', 0.000946655, 0.0137492, 0.239936, 900, 900, 900, 0, 0, 0, 0, 1, 1, 0, 1, 1, 0, 1, 0, 1, 0, 1
8, 287, '1', 0.00372677, 0.0357864, 0.0115523, 300, 300, 300, 0, 0, 0, 0, 1, 1, 0, 1, 1, 0, 1, 0, 1, 0, 1
8, 457, '1', 0.00197391, 0.0189546, 0.00611875, 200, 200, 200, 0, 0, 0, 0, 1, 1, 0, 1, 1, 0, 1, 0, 1, 0, 1
11, 10, '1', 0.000654968, 0.00320079, 0, 4, 4, 4, 0, 0, 0, 0, 1, 1, 0, 1, 1, 0, 1, 0, 1, 0, 1
342, 10, '1', 0.00282453, 0.0271226, 0.00875548, 145, 145, 145, 0, 0, 0, 0, 1, 1, 0, 1, 1, 0, 1, 0, 1, 0, 1
10, 349, '1', 0.00140166, 0.0134595, 0.00434489, 145, 145, 145, 0, 0, 0, 0, 1, 1, 0, 1, 1, 0, 1, 0, 1, 0, 1
13, 12, '1', 0.000623092, 0.00313413, 0, 65.5, 65.5, 65.5, 0, 0, 0, 0, 1, 1, 0, 1, 1, 0, 1, 0, 1, 0, 1
12, 216, '1', 0.00396229, 0.038048, 0.0122823, 270, 270, 270, 0, 0, 0, 0, 1, 1, 0, 1, 1, 0, 1, 0, 1, 0, 1
12, 304, '1', 0.00231014, 0.0211915, 0.00750976, 290, 290, 290, 0, 0, 0, 0, 1, 1, 0, 1, 1, 0, 1, 0, 1, 0, 1
12, 441, '1', 0.00156469, 0.015025, 0.00485023, 280, 280, 280, 0, 0, 0, 0, 1, 1, 0, 1, 1, 0, 1, 0, 1, 0, 1
386, 14, '1', 0.000316955, 0.00454654, 0.0813632, 900, 900, 900, 0, 0, 0, 0, 1, 1, 0, 1, 1, 0, 1, 0, 1, 0, 1
386, 14, '2', 0.00032, 0.00455, 0.08136, 1200, 1200, 1200, 0, 0, 0, 0, 1, 1, 0, 1, 1, 0, 1, 0, 1, 0, 1
15, 91, '1', 0.00479928, 0.0460852, 0.0148768, 160, 160, 160, 0, 0, 0, 0, 1, 1, 0, 1, 1, 0, 1, 0, 1, 0, 1
15, 230, '1', 0.0108937, 0.104607, 0.0337685, 220, 220, 220, 0, 0, 0, 0, 1, 1, 0, 1, 1, 0, 1, 0, 1, 0, 1
367, 15, '1', 0.00191786, 0.0184163, 0.00594499, 330, 330, 330, 0, 0, 0, 0, 1, 1, 0, 1, 1, 0, 1, 0, 1, 0, 1
15, 369, '1', 0.00185435, 0.0170105, 0.0060281, 220, 220, 220, 0, 0, 0, 0, 1, 1, 0, 1, 1, 0, 1, 0, 1, 0, 1
15, 473, '1', 0.00922481, 0.0846215, 0.0299878, 145, 145, 145, 0, 0, 0, 0, 1, 1, 0, 1, 1, 0, 1, 0, 1, 0, 1
20, 19, '1', 0.000541213, 0.00388582, 0, 7.5, 7.5, 7.5, 0, 0, 0, 0, 1, 1, 0, 1, 1, 0, 1, 0, 1, 0, 1
19, 112, '1', 0.00472218, 0.0453449, 0.0146378, 145, 145, 145, 0, 0, 0, 0, 0, 1, 0, 1, 1, 0, 1, 0, 1, 0, 1
193, 19, '1', 0.00222052, 0.0213226, 0.00688319, 270, 270, 270, 0, 0, 0, 0, 1, 1, 0, 1, 1, 0, 1, 0, 1, 0, 1
19, 272, '1', 0.00229314, 0.0220199, 0.00710827, 205, 205, 205, 0, 0, 0, 0, 1, 1, 0, 1, 1, 0, 1, 0, 1, 0, 1
22, 21, '1', 0.000587223, 0.00317397, 0, 254.2, 254.2, 254.2, 0, 0, 0, 0, 1, 1, 0, 1, 1, 0, 1, 0, 1, 0, 1
21, 112, '1', 0.00509204, 0.0488965, 0.0157843, 270, 270, 270, 0, 0, 0, 0, 1, 1, 0, 1, 1, 0, 1, 0, 1, 0, 1
21, 196, '1', 0.00220719, 0.0202471, 0.00717509, 365, 365, 365, 0, 0, 0, 0, 1, 1, 0, 1, 1, 0, 1, 0, 1, 0, 1
151, 23, '1', 0.000181712, 0.00260656, 0.046646, 1050, 1050, 1050, 0, 0, 0, 0, 1, 1, 0, 1, 1, 0, 1, 0, 1, 0, 1
23, 386, '1', 0.001642, 0.023851, 0.416226, 1000, 1000, 1000, 0, 0, 0, 0, 1, 1, 0, 1, 1, 0, 1, 0, 1, 0, 1
23, 464, '1', 0.000947169, 0.0125324, 0.264105, 1000, 1000, 1000, 0, 0, 0, 0, 1, 1, 0, 1, 1, 0, 1, 0, 1, 0, 1
23, 471, '1', 0.000532103, 0.0070405, 0.14837, 1100, 1100, 1100, 0, 0, 0, 0, 1, 1, 0, 1, 1, 0, 1, 0, 1, 0, 1
25, 24, '1', 0.000613052, 0.00362887, 0, 3.6, 3.6, 3.6, 0, 0, 0, 0, 1, 1, 0, 1, 1, 0, 1, 0, 1, 0, 1
26, 24, '1', 0.000563017, 0.00372943, 0, 29.5, 29.5, 29.5, 0, 0, 0, 0, 1, 1, 0, 1, 1, 0, 1, 0, 1, 0, 1
210, 24, '1', 0.00221775, 0.020344, 0.00720941, 270, 270, 270, 0, 0, 0, 0, 1, 1, 0, 1, 1, 0, 1, 0, 1, 0, 1
24, 360, '1', 0.0023654, 0.0227138, 0.00733228, 240, 240, 240, 0, 0, 0, 0, 1, 1, 0, 1, 1, 0, 1, 0, 1, 0, 1
28, 27, '1', 0.000686715, 0.00396302, 0, 108.6, 108.6, 108.6, 0, 0, 0, 0, 1, 1, 0, 1, 1, 0, 1, 0, 1, 0, 1
27, 68, '1', 0.005607, 0.053845, 0.017382, 300, 300, 300, 0, 0, 0, 0, 1, 1, 0, 1, 1, 0, 1, 0, 1, 0, 1
27, 382, '1', 0.00336979, 0.0309119, 0.0109544, 185, 185, 185, 0, 0, 0, 0, 1, 1, 0, 1, 1, 0, 1, 0, 1, 0, 1
30, 29, '1', 0.000616364, 0.00329848, 0, 157, 157, 157, 0, 0, 0, 0, 1, 1, 0, 1, 1, 0, 1, 0, 1, 0, 1
454, 29, '1', 0.00246982, 0.0226563, 0.00802886, 300, 300, 300, 0, 0, 0, 0, 1, 1, 0, 1, 1, 0, 1, 0, 1, 0, 1
29, 491, '1', 0.005607, 0.053837, 0.017379, 145, 145, 145, 0, 0, 0, 0, 1, 1, 0, 1, 1, 0, 1, 0, 1, 0, 1
32, 31, '1', 0.000625228, 0.00342917, 0, 15.7, 15.7, 15.7, 0, 0, 0, 0, 1, 1, 0, 1, 1, 0, 1, 0, 1, 0, 1
31, 85, '1', 0.00530344, 0.0509265, 0.0164396, 300, 300, 300, 0, 0, 0, 0, 1, 1, 0, 1, 1, 0, 1, 0, 1, 0, 1
104, 31, '1', 0.00552581, 0.0530617, 0.0171289, 145, 145, 145, 0, 0, 0, 0, 1, 1, 0, 1, 1, 0, 1, 0, 1, 0, 1
31, 189, '1', 0.0057068, 0.0547997, 0.01769, 145, 145, 145, 0, 0, 0, 0, 1, 1, 0, 1, 1, 0, 1, 0, 1, 0, 1
31, 205, '1', 0.00779682, 0.0748692, 0.0241686, 145, 145, 145, 0, 0, 0, 0, 1, 1, 0, 1, 1, 0, 1, 0, 1, 0, 1
31, 218, '1', 0.00827343, 0.0794458, 0.025646, 145, 145, 145, 0, 0, 0, 0, 1, 1, 0, 1, 1, 0, 1, 0, 1, 0, 1
267, 31, '1', 0.00489674, 0.0470211, 0.0151789, 220, 220, 220, 0, 0, 0, 0, 1, 1, 0, 1, 1, 0, 1, 0, 1, 0, 1
34, 33, '1', 0.000624403, 0.00328363, 0, 43.4, 43.4, 43.4, 0, 0, 0, 0, 1, 1, 0, 1, 1, 0, 1, 0, 1, 0, 1
83, 33, '1', 0.00528651, 0.0507639, 0.0163871, 220, 220, 220, 0, 0, 0, 0, 1, 1, 0, 1, 1, 0, 1, 0, 1, 0, 1
112, 33, '1', 0.00706143, 0.0678076, 0.021889, 220, 220, 220, 0, 0, 0, 0, 1, 1, 0, 1, 1, 0, 1, 0, 1, 0, 1
36, 35, '1', 0.000582978, 0.00303006, 0, 62.9, 62.9, 62.9, 0, 0, 0, 0, 1, 1, 0, 1, 1, 0, 1, 0, 1, 0, 1
191, 35, '1', 0.00403801, 0.0370417, 0.0131267, 145, 145, 145, 0, 0, 0, 0, 1, 1, 0, 1, 1, 0, 1, 0, 1, 0, 1
35, 399, '1', 0.005636, 0.054123, 0.017472, 270, 270, 270, 0, 0, 0, 0, 1, 1, 0, 1, 1, 0, 1, 0, 1, 0, 1
38, 37, '1', 0.0005458, 0.00382289, 0, 0.2, 0.2, 0.2, 0, 0, 0, 0, 1, 1, 0, 1, 1, 0, 1, 0, 1, 0, 1
76, 37, '1', 0.00147415, 0.0141555, 0.00456957, 270, 270, 270, 0, 0, 0, 0, 1, 1, 0, 1, 1, 0, 1, 0, 1, 0, 1
37, 176, '1', 0.003039, 0.02918, 0.009419, 275, 275, 275, 0, 0, 0, 0, 1, 1, 0, 1, 1, 0, 1, 0, 1, 0, 1
39, 332, '1', 0.000403375, 0.00578618, 0.103547, 900, 900, 900, 0, 0, 0, 0, 1, 1, 0, 1, 1, 0, 1, 0, 1, 0, 1
39, 428, '1', 0.000521367, 0.00689845, 0.145376, 900, 900, 900, 0, 0, 0, 0, 1, 1, 0, 1, 1, 0, 1, 0, 1, 0, 1
41, 40, '1', 0.000631179, 0.00392265, 0, 97.5, 97.5, 97.5, 0, 0, 0, 0, 1, 1, 0, 1, 1, 0, 1, 0, 1, 0, 1
40, 131, '1', 0.00290861, 0.0266814, 0.00945527, 145, 145, 145, 0, 0, 0, 0, 1, 1, 0, 1, 1, 0, 1, 0, 1, 0, 1
43, 42, '1', 0.000541641, 0.00311887, 0, 7.7, 7.7, 7.7, 0, 0, 0, 0, 1, 1, 0, 1, 1, 0, 1, 0, 1, 0, 1
81, 42, '1', 0.00236124, 0.0216602, 0.00767586, 270, 270, 270, 0, 0, 0, 0, 1, 1, 0, 1, 1, 0, 1, 0, 1, 0, 1
42, 191, '1', 0.0063685, 0.0584198, 0.0207026, 270, 270, 270, 0, 0, 0, 0, 1, 1, 0, 1, 1, 0, 1, 0, 1, 0, 1
45, 44, '1', 0.000636537, 0.00387643, 0, 2.8, 2.8, 2.8, 0, 0, 0, 0, 1, 1, 0, 1, 1, 0, 1, 0, 1, 0, 1
44, 200, '1', 0.00210518, 0.0193113, 0.00684347, 250, 250, 250, 0, 0, 0, 0, 1, 1, 0, 1, 1, 0, 1, 0, 1, 0, 1
47, 46, '1', 0.000602161, 0.00345412, 0, 63, 63, 63, 0, 0, 0, 0, 1, 1, 0, 1, 1, 0, 1, 0, 1, 0, 1
46, 156, '1', 0.00661096, 0.0634819, 0.0204927, 185, 185, 185, 0, 0, 0, 0, 1, 1, 0, 1, 1, 0, 1, 0, 1, 0, 1
238, 46, '1', 0.00313385, 0.0300929, 0.00971433, 185, 185, 185, 0, 0, 0, 0, 1, 1, 0, 1, 1, 0, 1, 0, 1, 0, 1
51, 48, '1', 0.000657783, 0.00367224, 0, 0.6, 0.6, 0.6, 0, 0, 0, 0, 1, 1, 0, 1, 1, 0, 1, 0, 1, 0, 1
52, 48, '1', 0.00062, 0.00334229, 0, 37.9, 37.9, 37.9, 0, 0, 0, 0, 1, 1, 0, 1, 1, 0, 1, 0, 1, 0, 1
358, 48, '1', 0.00450039, 0.0412832, 0.0146298, 270, 270, 270, 0, 0, 0, 0, 1, 1, 0, 1, 1, 0, 1, 0, 1, 0, 1
419, 48, '1', 0.0046368, 0.044525, 0.0143732, 220, 220, 220, 0, 0, 0, 0, 1, 1, 0, 1, 1, 0, 1, 0, 1, 0, 1
54, 53, '1', 0.000680462, 0.00306134, 0, 51.3, 51.3, 51.3, 0, 0, 0, 0, 1, 1, 0, 1, 1, 0, 1, 0, 1, 0, 1
233, 53, '1', 0.00236198, 0.0216671, 0.0076783, 200, 200, 200, 0, 0, 0, 0, 1, 1, 0, 1, 1, 0, 1, 0, 1, 0, 1
53, 276, '1', 0.0015021, 0.0144239, 0.00465621, 200, 200, 200, 0, 0, 0, 0, 1, 1, 0, 1, 1, 0, 1, 0, 1, 0, 1
56, 55, '1', 0.000640992, 0.00331002, 0, 3.1, 3.1, 3.1, 0, 0, 0, 0, 1, 1, 0, 1, 1, 0, 1, 0, 1, 0, 1
55, 66, '1', 0.00432958, 0.041575, 0.0134209, 145, 145, 145, 0, 0, 0, 0, 1, 1, 0, 1, 1, 0, 1, 0, 1, 0, 1
55, 500, '1', 0.00448061, 0.0411018, 0.0145655, 145, 145, 145, 0, 0, 0, 0, 1, 1, 0, 1, 1, 0, 1, 0, 1, 0, 1
57, 123, '1', 0.001682, 0.024427, 0.426274, 1000, 1000, 1000, 0, 0, 0, 0, 1, 1, 0, 1, 1, 0, 1, 0, 1, 0, 1
440, 57, '1', 0.000600772, 0.00872563, 0.15227, 900, 900, 900, 0, 0, 0, 0, 1, 1, 0, 1, 1, 0, 1, 0, 1, 0, 1
59, 58, '1', 0.000620439, 0.00384844, 0, 252.9, 252.9, 252.9, 0, 0, 0, 0, 1, 1, 0, 1, 1, 0, 1, 0, 1, 0, 1
58, 253, '1', 0.00453214, 0.04352, 0.0140487, 200, 200, 200, 0, 0, 0, 0, 1, 1, 0, 1, 1, 0, 1, 0, 1, 0, 1
322, 58, '1', 0.00201876, 0.0193852, 0.00625775, 220, 220, 220, 0, 0, 0, 0, 1, 1, 0, 1, 1, 0, 1, 0, 1, 0, 1
322, 58, '2', 0.00202, 0.01939, 0.00626, 320.3, 320.3, 320.3, 0, 0, 0, 0, 1, 1, 0, 1, 1, 0, 1, 0, 1, 0, 1
61, 60, '1', 0.000528782, 0.00351793, 0, 0.3, 0.3, 0.3, 0, 0, 0, 0, 1, 1, 0, 1, 1, 0, 1, 0, 1, 0, 1
60, 131, '1', 0.0019849, 0.018208, 0.00645249, 185, 185, 185, 0, 0, 0, 0, 1, 1, 0, 1, 1, 0, 1, 0, 1, 0, 1
466, 60, '1', 0.00201135, 0.0193141, 0.00623481, 185, 185, 185, 0, 0, 0, 0, 1, 1, 0, 1, 1, 0, 1, 0, 1, 0, 1
64, 62, '1', 0.000661196, 0.00327389, 0, 45.6, 45.6, 45.6, 0, 0, 0, 0, 1, 1, 0, 1, 1, 0, 1, 0, 1, 0, 1
287, 62, '1', 0.00545324, 0.0523649, 0.016904, 160, 160, 160, 0, 0, 0, 0, 1, 1, 0, 1, 1, 0, 1, 0, 1, 0, 1
62, 457, '1', 0.00726746, 0.069786, 0.0225277, 200, 200, 200, 0, 0, 0, 0, 1, 1, 0, 1, 1, 0, 1, 0, 1, 0, 1
80, 65, '1', 0.000960188, 0.0137734, 0.246483, 1350, 1350, 1350, 0, 0, 0, 0, 1, 1, 0, 1, 1, 0, 1, 0, 1, 0, 1
65, 297, '1', 0.000919634, 0.0131916, 0.236073, 900, 900, 900, 0, 0, 0, 0, 1, 1, 0, 1, 1, 0, 1, 0, 1, 0, 1
67, 66, '1', 0.000661357, 0.00335859, 0, 6.7, 6.7, 6.7, 0, 0, 0, 0, 1, 1, 0, 1, 1, 0, 1, 0, 1, 0, 1
66, 308, '1', 0.00718043, 0.0689503, 0.0222579, 270, 270, 270, 0, 0, 0, 0, 1, 1, 0, 1, 1, 0, 1, 0, 1, 0, 1
69, 68, '1', 0.00066883, 0.00399823, 0, 27.6, 27.6, 27.6, 0, 0, 0, 0, 1, 1, 0, 1, 1, 0, 1, 0, 1, 0, 1
68, 295, '1', 0.00446902, 0.0409955, 0.0145278, 145, 145, 145, 0, 0, 0, 0, 1, 1, 0, 1, 1, 0, 1, 0, 1, 0, 1
68, 314, '1', 0.00180512, 0.0173337, 0.00559552, 220, 220, 220, 0, 0, 0, 0, 1, 1, 0, 1, 1, 0, 1, 0, 1, 0, 1
216, 70, '1', 0.00259564, 0.0238105, 0.00843787, 170, 170, 170, 0, 0, 0, 0, 1, 1, 0, 1, 1, 0, 1, 0, 1, 0, 1
70, 490, '1', 0.00212701, 0.0195116, 0.00691444, 170, 170, 170, 0, 0, 0, 0, 1, 1, 0, 1, 1, 0, 1, 0, 1, 0, 1
75, 74, '1', 0.00058441, 0.0033391, 0, 8.8, 8.8, 8.8, 0, 0, 0, 0, 1, 1, 0, 1, 1, 0, 1, 0, 1, 0, 1
74, 189, '1', 0.00563229, 0.0540843, 0.017459, 220, 220, 220, 0, 0, 0, 0, 1, 1, 0, 1, 1, 0, 1, 0, 1, 0, 1
240, 74, '1', 0.00443354, 0.04067, 0.0144125, 220, 220, 220, 0, 0, 0, 0, 1, 1, 0, 1, 1, 0, 1, 0, 1, 0, 1
77, 76, '1', 0.000695009, 0.00331266, 0, 12.2, 12.2, 12.2, 0, 0, 0, 0, 1, 1, 0, 1, 1, 0, 1, 0, 1, 0, 1
452, 76, '1', 0.002012, 0.019322, 0.006237, 330, 330, 330, 0, 0, 0, 0, 1, 1, 0, 1, 1, 0, 1, 0, 1, 0, 1
79, 78, '1', 0.000622277, 0.00327852, 0, 0.5, 0.5, 0.5, 0, 0, 0, 0, 1, 1, 0, 1, 1, 0, 1, 0, 1, 0, 1
78, 328, '1', 0.00543197, 0.0498288, 0.0176582, 260, 260, 260, 0, 0, 0, 0, 1, 1, 0, 1, 1, 0, 1, 0, 1, 0, 1
78, 387, '1', 0.00235449, 0.022609, 0.00729845, 260, 260, 260, 0, 0, 0, 0, 1, 1, 0, 1, 1, 0, 1, 0, 1, 0, 1
407, 80, '1', 0.000818, 0.010825, 0.228132, 1050, 1050, 1050, 0, 0, 0, 0, 1, 1, 0, 1, 1, 0, 1, 0, 1, 0, 1
149, 81, '1', 0.00287908, 0.0264105, 0.00935925, 145, 145, 145, 0, 0, 0, 0, 1, 1, 0, 1, 1, 0, 1, 0, 1, 0, 1
84, 83, '1', 0.000637555, 0.00365521, 0, 105.4, 105.4, 105.4, 0, 0, 0, 0, 1, 1, 0, 1, 1, 0, 1, 0, 1, 0, 1
83, 342, '1', 0.00411562, 0.0395203, 0.0127576, 145, 145, 145, 0, 0, 0, 0, 1, 1, 0, 1, 1, 0, 1, 0, 1, 0, 1
86, 85, '1', 0.00065231, 0.00390108, 0, 30, 30, 30, 0, 0, 0, 0, 1, 1, 0, 1, 1, 0, 1, 0, 1, 0, 1
272, 85, '1', 0.00441169, 0.0404695, 0.0143414, 270, 270, 270, 0, 0, 0, 0, 1, 1, 0, 1, 1, 0, 1, 0, 1, 0, 1
88, 87, '1', 0.000622526, 0.00356856, 0, 7.7, 7.7, 7.7, 0, 0, 0, 0, 1, 1, 0, 1, 1, 0, 1, 0, 1, 0, 1
87, 141, '1', 0.001846, 0.017727, 0.005723, 520, 520, 520, 0, 0, 0, 0, 1, 1, 0, 1, 1, 0, 1, 0, 1, 0, 1
87, 143, '1', 0.00382, 0.035043, 0.012419, 515, 515, 515, 0, 0, 0, 0, 1, 1, 0, 1, 1, 0, 1, 0, 1, 0, 1
423, 87, '1', 0.00183568, 0.0176272, 0.00569025, 270, 270, 270, 0, 0, 0, 0, 1, 1, 0, 1, 1, 0, 1, 0, 1, 0, 1
90, 89, '1', 0.000554087, 0.00386402, 0, 10.5, 10.5, 10.5, 0, 0, 0, 0, 1, 1, 0, 1, 1, 0, 1, 0, 1, 0, 1
89, 187, '1', 0.00211627, 0.0203216, 0.00656004, 145, 145, 145, 0, 0, 0, 0, 1, 1, 0, 1, 1, 0, 1, 0, 1, 0, 1
89, 457, '1', 0.009012, 0.082666, 0.029295, 145, 145, 145, 0, 0, 0, 0, 1, 1, 0, 1, 1, 0, 1, 0, 1, 0, 1
92, 91, '1', 0.0005717, 0.00361724, 0, 104.2, 104.2, 104.2, 0, 0, 0, 0, 1, 1, 0, 1, 1, 0, 1, 0, 1, 0, 1
91, 133, '1', 0.00504049, 0.0484015, 0.0156245, 270, 270, 270, 0, 0, 0, 0, 1, 1, 0, 1, 1, 0, 1, 0, 1, 0, 1
94, 93, '1', 0.000536047, 0.00328149, 0, 8.2, 8.2, 8.2, 0, 0, 0, 0, 1, 1, 0, 1, 1, 0, 1, 0, 1, 0, 1
269, 93, '1', 0.00392064, 0.035965, 0.0127451, 270, 270, 270, 0, 0, 0, 0, 1, 1, 0, 1, 1, 0, 1, 0, 1, 0, 1
336, 93, '1', 0.00579454, 0.0531548, 0.0188368, 270, 270, 270, 0, 0, 0, 0, 1, 1, 0, 1, 1, 0, 1, 0, 1, 0, 1
96, 95, '1', 0.00056273, 0.00325345, 0, 56.2, 56.2, 56.2, 0, 0, 0, 0, 1, 1, 0, 1, 1, 0, 1, 0, 1, 0, 1
95, 170, '1', 0.0021107, 0.020268, 0.00654275, 145, 145, 145, 0, 0, 0, 0, 1, 1, 0, 1, 1, 0, 1, 0, 1, 0, 1
95, 369, '1', 0.00409437, 0.0393163, 0.0126918, 270, 270, 270, 0, 0, 0, 0, 1, 1, 0, 1, 1, 0, 1, 0, 1, 0, 1
98, 97, '1', 0.000568811, 0.00398603, 0, 66.4, 66.4, 66.4, 0, 0, 0, 0, 1, 1, 0, 1, 1, 0, 1, 0, 1, 0, 1
181, 97, '1', 0.00299237, 0.0287344, 0.00927578, 145, 145, 145, 0, 0, 0, 0, 1, 1, 0, 1, 1, 0, 1, 0, 1, 0, 1
358, 97, '1', 0.00267648, 0.024552, 0.00870064, 270, 270, 270, 0, 0, 0, 0, 1, 1, 0, 1, 1, 0, 1, 0, 1, 0, 1
100, 99, '1', 0.000644448, 0.00362034, 0, 22.7, 22.7, 22.7, 0, 0, 0, 0, 1, 1, 0, 1, 1, 0, 1, 0, 1, 0, 1
101, 99, '1', 0.000699472, 0.00329389, 0, 1.4, 1.4, 1.4, 0, 0, 0, 0, 1, 1, 0, 1, 1, 0, 1, 0, 1, 0, 1
99, 465, '1', 0.0026889, 0.0258203, 0.00833507, 145, 145, 145, 0, 0, 0, 0, 1, 1, 0, 1, 1, 0, 1, 0, 1, 0, 1
472, 99, '1', 0.00331831, 0.0318642, 0.0102861, 145, 145, 145, 0, 0, 0, 0, 1, 1, 0, 1, 1, 0, 1, 0, 1, 0, 1
103, 102, '1', 0.000613984, 0.00387398, 0, 64.6, 64.6, 64.6, 0, 0, 0, 0, 1, 1, 0, 1, 1, 0, 1, 0, 1, 0, 1
102, 308, '1', 0.00564993, 0.0542537, 0.0175137, 270, 270, 270, 0, 0, 0, 0, 1, 1, 0, 1, 1, 0, 1, 0, 1, 0, 1
419, 102, '1', 0.00363843, 0.0349382, 0.0112784, 270, 270, 270, 0, 0, 0, 0, 1, 1, 0, 1, 1, 0, 1, 0, 1, 0, 1
105, 104, '1', 0.000672543, 0.00375095, 0, 144.2, 144.2, 144.2, 0, 0, 0, 0, 1, 1, 0, 1, 1, 0, 1, 0, 1, 0, 1
104, 191, '1', 0.00517651, 0.0474854, 0.0168277, 145, 145, 145, 0, 0, 0, 0, 1, 1, 0, 1, 1, 0, 1, 0, 1, 0, 1
107, 106, '1', 0.000574563, 0.00320633, 0, 24.5, 24.5, 24.5, 0, 0, 0, 0, 1, 1, 0, 1, 1, 0, 1, 0, 1, 0, 1
106, 191, '1', 0.00446795, 0.0429036, 0.0138498, 270, 270, 270, 0, 0, 0, 0, 1, 1, 0, 1, 1, 0, 1, 0, 1, 0, 1
236, 106, '1', 0.00311532, 0.029915, 0.00965689, 270, 270, 270, 0, 0, 0, 0, 1, 1, 0, 1, 1, 0, 1, 0, 1, 0, 1
109, 108, '1', 0.000658007, 0.00300957, 0, 62.9, 62.9, 62.9, 0, 0, 0, 0, 1, 1, 0, 1, 1, 0, 1, 0, 1, 0, 1
108, 472, '1', 0.00203292, 0.0195212, 0.00630167, 185, 185, 185, 0, 0, 0, 0, 1, 1, 0, 1, 1, 0, 1, 0, 1, 0, 1
108, 495, '1', 0.00361075, 0.0346724, 0.0111926, 220, 220, 220, 0, 0, 0, 0, 1, 1, 0, 1, 1, 0, 1, 0, 1, 0, 1
111, 110, '1', 0.000526841, 0.00370826, 0, 87, 87, 87, 0, 0, 0, 0, 1, 1, 0, 1, 1, 0, 1, 0, 1, 0, 1
274, 110, '1', 0.00312607, 0.0300181, 0.0096902, 220, 220, 220, 0, 0, 0, 0, 1, 1, 0, 1, 1, 0, 1, 0, 1, 0, 1
110, 316, '1', 0.00343915, 0.0330245, 0.0106607, 145, 145, 145, 0, 0, 0, 0, 1, 1, 0, 1, 1, 0, 1, 0, 1, 0, 1
113, 112, '1', 0.000644371, 0.00311935, 0, 73, 73, 73, 0, 0, 0, 0, 1, 1, 0, 1, 1, 0, 1, 0, 1, 0, 1
193, 112, '1', 0.00286733, 0.0275336, 0.00888817, 175, 175, 175, 0, 0, 0, 0, 1, 1, 0, 1, 1, 0, 1, 0, 1, 0, 1
112, 236, '1', 0.00632924, 0.0607768, 0.0196194, 300, 300, 300, 0, 0, 0, 0, 1, 1, 0, 1, 1, 0, 1, 0, 1, 0, 1
112, 283, '1', 0.00861853, 0.0827597, 0.0267158, 145, 145, 145, 0, 0, 0, 0, 1, 1, 0, 1, 1, 0, 1, 0, 1, 0, 1
372, 112, '1', 0.0020065, 0.0192675, 0.00621976, 285, 285, 285, 0, 0, 0, 0, 1, 1, 0, 1, 1, 0, 1, 0, 1, 0, 1
112, 499, '1', 0.0055765, 0.0511546, 0.018128, 220, 220, 220, 0, 0, 0, 0, 1, 1, 0, 1, 1, 0, 1, 0, 1, 0, 1
115, 114, '1', 0.000506233, 0.00336036, 0, 6.7, 6.7, 6.7, 0, 0, 0, 0, 1, 1, 0, 1, 1, 0, 1, 0, 1, 0, 1
116, 114, '1', 0.000505013, 0.00341051, 0, 5.3, 5.3, 5.3, 0, 0, 0, 0, 1, 1, 0, 1, 1, 0, 1, 0, 1, 0, 1
114, 191, '1', 0.00555724, 0.0533636, 0.0172264, 145, 145, 145, 0, 0, 0, 0, 1, 1, 0, 1, 1, 0, 1, 0, 1, 0, 1
114, 312, '1', 0.0066089, 0.0634622, 0.0204863, 145, 145, 145, 0, 0, 0, 0, 1, 1, 0, 1, 1, 0, 1, 0, 1, 0, 1
118, 117, '1', 0.000633836, 0.00385096, 0, 12.8, 12.8, 12.8, 0, 0, 0, 0, 1, 1, 0, 1, 1, 0, 1, 0, 1, 0, 1
117, 426, '1', 0.00317216, 0.029099, 0.010312, 145, 145, 145, 0, 0, 0, 0, 1, 1, 0, 1, 1, 0, 1, 0, 1, 0, 1
490, 117, '1', 0.00299873, 0.0275081, 0.0097482, 300, 300, 300, 0, 0, 0, 0, 1, 1, 0, 1, 1, 0, 1, 0, 1, 0, 1
120, 119, '1', 0.000556147, 0.00305904, 0, 46.6, 46.6, 46.6, 0, 0, 0, 0, 1, 1, 0, 1, 1, 0, 1, 0, 1, 0, 1
119, 129, '1', 0.00234965, 0.0215539, 0.0076382, 270, 270, 270, 0, 0, 0, 0, 1, 1, 0, 1, 1, 0, 1, 0, 1, 0, 1
253, 119, '1', 0.00149439, 0.0143499, 0.00463231, 250, 250, 250, 0, 0, 0, 0, 1, 1, 0, 1, 1, 0, 1, 0, 1, 0, 1
122, 121, '1', 0.000554934, 0.00384643, 0, 70.4, 70.4, 70.4, 0, 0, 0, 0, 1, 1, 0, 1, 1, 0, 1, 0, 1, 0, 1
121, 276, '1', 0.00254757, 0.0244631, 0.00789698, 145, 145, 145, 0, 0, 0, 0, 1, 1, 0, 1, 1, 0, 1, 0, 1, 0, 1
121, 287, '1', 0.00708754, 0.0680583, 0.02197, 145, 145, 145, 0, 0, 0, 0, 1, 1, 0, 1, 1, 0, 1, 0, 1, 0, 1
165, 123, '1', 0.000216027, 0.00313758, 0.0547534, 900, 900, 900, 0, 0, 0, 0, 1, 1, 0, 1, 1, 0, 1, 0, 1, 0, 1
124, 260, '1', 0.00203952, 0.0187091, 0.00663005, 220, 220, 220, 0, 0, 0, 0, 1, 1, 0, 1, 1, 0, 1, 0, 1, 0, 1
124, 369, '1', 0.00769284, 0.0705683, 0.0250077, 225, 225, 225, 0, 0, 0, 0, 1, 1, 0, 1, 1, 0, 1, 0, 1, 0, 1
130, 129, '1', 0.000698008, 0.00322102, 0, 166, 166, 166, 0, 0, 0, 0, 1, 1, 0, 1, 1, 0, 1, 0, 1, 0, 1
304, 129, '1', 0.00306297, 0.0294122, 0.0094946, 195, 195, 195, 0, 0, 0, 0, 1, 1, 0, 1, 1, 0, 1, 0, 1, 0, 1
324, 129, '1', 0.00187843, 0.0172313, 0.00610636, 195, 195, 195, 0, 0, 0, 0, 1, 1, 0, 1, 1, 0, 1, 0, 1, 0, 1
132, 131, '1', 0.000673258, 0.00361521, 0, 41.6, 41.6, 41.6, 0, 0, 0, 0, 1, 1, 0, 1, 1, 0, 1, 0, 1, 0, 1
131, 333, '1', 0.00222709, 0.0213857, 0.00690355, 300, 300, 300, 0, 0, 0, 0, 1, 1, 0, 1, 1, 0, 1, 0, 1, 0, 1
134, 133, '1', 0.000515032, 0.00308264, 0, 66, 66, 66, 0, 0, 0, 0, 1, 1, 0, 1, 1, 0, 1, 0, 1, 0, 1
133, 226, '1', 0.00644015, 0.0590771, 0.0209355, 145, 145, 145, 0, 0, 0, 0, 1, 1, 0, 1, 1, 0, 1, 0, 1, 0, 1
133, 369, '1', 0.00615507, 0.056462, 0.0200088, 300, 300, 300, 0, 0, 0, 0, 0, 1, 0, 1, 1, 0, 1, 0, 1, 0, 1
473, 133, '1', 0.00475466, 0.0456568, 0.0147385, 145, 145, 145, 0, 0, 0, 0, 1, 1, 0, 1, 1, 0, 1, 0, 1, 0, 1
136, 135, '1', 0.000548777, 0.0036604, 0, 45.6, 45.6, 45.6, 0, 0, 0, 0, 1, 1, 0, 1, 1, 0, 1, 0, 1, 0, 1
135, 287, '1', 0.00756782, 0.0694215, 0.0246013, 300, 300, 300, 0, 0, 0, 0, 1, 1, 0, 1, 1, 0, 1, 0, 1, 0, 1
135, 457, '1', 0.00686487, 0.0629732, 0.0223162, 220, 220, 220, 0, 0, 0, 0, 1, 1, 0, 1, 1, 0, 1, 0, 1, 0, 1
138, 137, '1', 0.000555555, 0.00378798, 0, 122.9, 122.9, 122.9, 0, 0, 0, 0, 1, 1, 0, 1, 1, 0, 1, 0, 1, 0, 1
137, 214, '1', 0.00312011, 0.029961, 0.00967175, 200, 200, 200, 0, 0, 0, 0, 1, 1, 0, 1, 1, 0, 1, 0, 1, 0, 1
137, 426, '1', 0.00299838, 0.028792, 0.00929439, 145, 145, 145, 0, 0, 0, 0, 1, 1, 0, 1, 1, 0, 1, 0, 1, 0, 1
137, 426, '2', 0.003, 0.02879, 0.00929, 320.3, 320.3, 320.3, 0, 0, 0, 0, 1, 1, 0, 1, 1, 0, 1, 0, 1, 0, 1
140, 139, '1', 0.000600197, 0.00318213, 0, 0.4, 0.4, 0.4, 0, 0, 0, 0, 1, 1, 0, 1, 1, 0, 1, 0, 1, 0, 1
139, 376, '1', 0.00267603, 0.0256967, 0.00829519, 185, 185, 185, 0, 0, 0, 0, 1, 1, 0, 1, 1, 0, 1, 0, 1, 0, 1
429, 139, '1', 0.00146772, 0.0140938, 0.00454964, 185, 185, 185, 0, 0, 0, 0, 1, 1, 0, 1, 1, 0, 1, 0, 1, 0, 1
142, 141, '1', 0.000686707, 0.00341671, 0, 209.8, 209.8, 209.8, 0, 0, 0, 0, 1, 1, 0, 1, 1, 0, 1, 0, 1, 0, 1
300, 141, '1', 0.00267026, 0.024495, 0.00868044, 430, 430, 430, 0, 0, 0, 0, 1, 1, 0, 1, 1, 0, 1, 0, 1, 0, 1
...
0 / END OF BRANCH DATA, BEGIN TRANSFORMER DATA
8, 7, 0, '1', 1, 1, 1, 0, 0, 2, ' ', 1, 1, 1, 0, 1, 0, 1, 0, 1, ' '
0.000355062, 0.0129, 567
1, 138, 0, 567, 567, 567, 0, 0, 1.5, .51, 1.5, .51, 159, 0, 0, 0, 0
1, 345
9, 7, 0, '1', 1, 1, 1, 0, 0, 2, ' ', 1, 1, 1, 0, 1, 0, 1, 0, 1, ' '
0.00012, 0.01362, 900
1, 13.8, 0, 900, 900, 900, 0, 0, 1.5, .51, 1.5, .51, 159, 0, 0, 0, 0
1, 345
9, 7, 0, '2', 1, 1, 1, 0, 0, 2, ' ', 1, 1, 1, 0, 1, 0, 1, 0, 1, ' '
0.00012, 0.01362, 900
1, 13.8, 0, 900, 900, 900, 0, 0, 1.5, .51, 1.5, .51, 159, 0, 0, 0, 0
1, 345
15, 14, 0, '1', 1, 1, 1, 0, 0, 2, ' ', 1, 1, 1, 0, 1, 0, 1, 0, 1, ' '
0.000207947, 0.01122, 682
1, 138, 0, 682, 682, 682, 0, 0, 1.5, .51, 1.5, .51, 159, 0, 0, 0, 0
1, 345
16, 14, 0, '1', 1, 1, 1, 0, 0, 2, ' ', 1, 1, 1, 0, 1, 0, 1, 0, 1, ' '
0.000325948, 0.01202, 596
1, 13.8, 0, 596, 596, 596, 0, 0, 1.5, .51, 1.5, .51, 159, 0, 0, 0, 0
1, 345
17, 14, 0, '1', 1, 1, 1, 0, 0, 2, ' ', 1, 1, 1, 0, 1, 0, 1, 0, 1, ' '
0.000279, 0.01438, 930
1, 13.8, 0, 930, 930, 930, 0, 0, 1.5, .51, 1.5, .51, 159, 0, 0, 0, 0
1, 345
17, 14, 0, '2', 1, 1, 1, 0, 0, 2, ' ', 1, 1, 1, 0, 1, 0, 1, 0, 1, ' '
0.000354, 0.01438, 930
1, 13.8, 0, 930, 930, 930, 0, 0, 1.5, .51, 1.5, .51, 159, 0, 0, 0, 0
1, 345
18, 14, 0, '1', 1, 1, 1, 0, 0, 2, ' ', 1, 1, 1, 0, 1, 0, 1, 0, 1, ' '
0.00141719, 0.05115, 340
1, 13.8, 0, 340, 340, 340, 0, 0, 1.5, .51, 1.5, .51, 159, 0, 0, 0, 0
1, 345
24, 23, 0, '1', 1, 1, 1, 0, 0, 2, ' ', 1, 1, 1, 0, 1, 0, 1, 0, 1, ' '
0.00033, 0.01764, 626
1, 138, 0, 626, 626, 626, 0, 0, 1.5, .51, 1.5, .51, 159, 0, 0, 0, 0
1, 345
40, 39, 0, '1', 1, 1, 1, 0, 0, 2, ' ', 1, 1, 1, 0, 1, 0, 1, 0, 1, ' '
0.0007, 0.02531, 428
1, 138, 0, 428, 428, 428, 0, 0, 1.5, .51, 1.5, .51, 159, 0, 0, 0, 0
1, 345
49, 48, 0, '1', 1, 1, 1, 0, 0, 2, ' ', 1, 1, 1, 0, 1, 0, 1, 0, 1, ' '
0.01331, 0.27853, 57
1, 13.8, 0, 57, 57, 57, 0, 0, 1.5, .51, 1.5, .51, 159, 0, 0, 0, 0
1, 138
50, 48, 0, '1', 1, 1, 1, 0, 0, 2, ' ', 1, 1, 1, 0, 1, 0, 1, 0, 1, ' '
0.00715, 0.16356, 100
1, 13.8, 0, 100, 100, 100, 0, 0, 1.5, .51, 1.5, .51, 159, 0, 0, 0, 0
1, 138
58, 57, 0, '1', 1, 1, 1, 0, 0, 2, ' ', 1, 1, 1, 0, 1, 0, 1, 0, 1, ' '
0.00012, 0.01762, 675
1, 138, 0, 675, 675, 675, 0, 0, 1.5, .51, 1.5, .51, 159, 0, 0, 0, 0
1, 345
58, 57, 0, '2', 1, 1, 1, 0, 0, 2, ' ', 1, 1, 1, 0, 1, 0, 1, 0, 1, ' '
0.00012, 0.01762, 675
1, 138, 0, 675, 675, 675, 0, 0, 1.5, .51, 1.5, .51, 159, 0, 0, 0, 0
1, 345
63, 62, 0, '1', 1, 1, 1, 0, 0, 2, ' ', 1, 1, 1, 0, 1, 0, 1, 0, 1, ' '
0.0032, 0.16353, 70
1, 13.8, 0, 70, 70, 70, 0, 0, 1.5, .51, 1.5, .51, 159, 0, 0, 0, 0
1, 138
66, 65, 0, '1', 1, 1, 1, 0, 0, 2, ' ', 1, 1, 1, 0, 1, 0, 1, 0, 1, ' '
0.000807929, 0.03088, 405
1, 138, 0, 405, 405, 405, 0, 0, 1.5, .51, 1.5, .51, 159, 0, 0, 0, 0
1, 345
71, 70, 0, '1', 1, 1, 1, 0, 0, 2, ' ', 1, 1, 1, 0, 1, 0, 1, 0, 1, ' '
0.00103, 0.04472, 133
1, 13.8, 0, 133, 133, 133, 0, 0, 1.5, .51, 1.5, .51, 159, 0, 0, 0, 0
1, 138
...